_0
     RDKit          3D

 40 43  0  0  1  0  0  0  0  0999 V2000
   -5.3045   -0.8512    0.4342 C   0  0  0  0  0  0  0  0  0  0  0  0
   -6.4676   -0.1532    0.7342 C   0  0  0  0  0  0  0  0  0  0  0  0
   -6.7592    1.0295    0.0661 C   0  0  0  0  0  0  0  0  0  0  0  0
   -7.8941    1.7186    0.3555 O   0  0  0  0  0  0  0  0  0  0  0  0
   -5.8872    1.5144   -0.9012 C   0  0  0  0  0  0  0  0  0  0  0  0
   -4.7264    0.8156   -1.2034 C   0  0  0  0  0  0  0  0  0  0  0  0
   -4.4365   -0.3692   -0.5401 C   0  0  0  0  0  0  0  0  0  0  0  0
   -3.1522   -1.1301   -0.8623 C   0  0  0  0  0  0  0  0  0  0  0  0
   -2.4894   -1.5855    0.4346 C   0  0  0  0  0  0  0  0  0  0  0  0
   -1.2040   -2.2403    0.1610 N   0  0  0  0  0  0  0  0  0  0  0  0
   -0.1480   -1.4345    0.1752 C   0  0  0  0  0  0  0  0  0  0  0  0
    1.0949   -1.9004   -0.0285 N   0  0  0  0  0  0  0  0  0  0  0  0
   -0.3693   -0.1359    0.4349 N   0  0  0  0  0  0  0  0  0  0  0  0
    0.6353    0.7462    0.4774 C   0  0  0  0  0  0  0  0  0  0  0  0
    0.3890    2.0306    0.7257 N   0  0  0  0  0  0  0  0  0  0  0  0
    1.9357    0.2953    0.2635 N   0  0  0  0  0  0  0  0  0  0  0  0
    3.0245    0.8705    0.2467 N   0  0  0  0  0  0  0  0  0  0  0  0
    2.1410   -1.0594    0.0077 C   0  0  0  0  0  0  0  0  0  0  0  0
    3.4484   -1.2207   -0.1572 N   0  0  0  0  0  0  0  0  0  0  0  0
    3.9941   -0.0123   -0.0032 C   0  0  0  0  0  0  0  0  0  0  0  0
    5.3445    0.2963   -0.0977 C   0  0  0  0  0  0  0  0  0  0  0  0
    6.3731   -0.5130   -0.3278 C   0  0  0  0  0  0  0  0  0  0  0  0
    7.4837    0.2226   -0.3333 C   0  0  0  0  0  0  0  0  0  0  0  0
    7.1658    1.4981   -0.1079 C   0  0  0  0  0  0  0  0  0  0  0  0
    5.8083    1.5679    0.0458 O   0  0  0  0  0  0  0  0  0  0  0  0
   -5.0701   -1.7846    0.9669 H   0  0  0  0  0  0  0  0  0  0  0  0
   -7.1574   -0.5368    1.5004 H   0  0  0  0  0  0  0  0  0  0  0  0
   -8.0975    2.5609   -0.1233 H   0  0  0  0  0  0  0  0  0  0  0  0
   -6.1169    2.4524   -1.4277 H   0  0  0  0  0  0  0  0  0  0  0  0
   -4.0362    1.2006   -1.9685 H   0  0  0  0  0  0  0  0  0  0  0  0
   -3.3919   -2.0087   -1.4792 H   0  0  0  0  0  0  0  0  0  0  0  0
   -2.4647   -0.4709   -1.4126 H   0  0  0  0  0  0  0  0  0  0  0  0
   -2.3185   -0.7104    1.0789 H   0  0  0  0  0  0  0  0  0  0  0  0
   -3.1527   -2.3060    0.9355 H   0  0  0  0  0  0  0  0  0  0  0  0
   -1.1268   -3.2498   -0.0279 H   0  0  0  0  0  0  0  0  0  0  0  0
    1.1651    2.7070    0.7577 H   0  0  0  0  0  0  0  0  0  0  0  0
   -0.5777    2.3480    0.8859 H   0  0  0  0  0  0  0  0  0  0  0  0
    6.3173   -1.6002   -0.4859 H   0  0  0  0  0  0  0  0  0  0  0  0
    8.5014   -0.1610   -0.4976 H   0  0  0  0  0  0  0  0  0  0  0  0
    7.8689    2.3424   -0.0551 H   0  0  0  0  0  0  0  0  0  0  0  0
  1  2  2  0
  1  7  1  0
  2  3  1  0
  3  4  1  0
  3  5  2  0
  5  6  1  0
  6  7  2  0
  7  8  1  0
  8  9  1  0
  9 10  1  0
 10 11  1  0
 11 12  2  0
 11 13  1  0
 12 18  1  0
 13 14  2  0
 14 15  1  0
 14 16  1  0
 16 17  1  0
 16 18  1  0
 17 20  2  0
 18 19  2  0
 19 20  1  0
 20 21  1  0
 21 22  2  0
 21 25  1  0
 22 23  1  0
 23 24  2  0
 24 25  1  0
  1 26  1  0
  2 27  1  0
  4 28  1  0
  5 29  1  0
  6 30  1  0
  8 31  1  0
  8 32  1  0
  9 33  1  0
  9 34  1  0
 10 35  1  0
 15 36  1  0
 15 37  1  0
 22 38  1  0
 23 39  1  0
 24 40  1  0
M  END
>  <s_pdb_PDB_format_version>  (1) 
3.0

>  <Original_Name>  (1) 


$$$$
CHEMBL369070_0_71
     RDKit          3D

 50 54  0  0  0  0  0  0  0  0999 V2000
    0.7655    2.3555    0.9817 N   0  0  0  0  0  0  0  0  0  0  0  0
    0.9129    0.9817    0.6829 C   0  0  0  0  0  0  0  0  0  0  0  0
   -0.1642    0.1889    0.7296 N   0  0  0  0  0  0  0  0  0  0  0  0
   -0.1248   -1.1244    0.4631 C   0  0  0  0  0  0  0  0  0  0  0  0
   -1.3030   -1.8911    0.5342 N   0  0  0  0  0  0  0  0  0  0  0  0
   -2.5875   -1.3271    0.8604 C   0  0  0  0  0  0  0  0  0  0  0  0
   -2.9865   -0.3474   -0.1761 C   0  0  1  0  0  0  0  0  0  0  0  0
   -3.0996   -0.9358   -1.5580 C   0  0  0  0  0  0  0  0  0  0  0  0
   -4.0235    0.0457   -2.2565 C   0  0  0  0  0  0  0  0  0  0  0  0
   -4.4402    1.0242   -1.1493 C   0  0  0  0  0  0  0  0  0  0  0  0
   -4.3022    0.2331    0.0529 N   0  0  0  0  0  0  0  0  0  0  0  0
   -5.3348   -0.7383    0.1142 C   0  0  0  0  0  0  0  0  0  0  0  0
   -6.6569   -0.0741    0.1543 C   0  0  0  0  0  0  0  0  0  0  0  0
   -7.4555    0.1966   -0.9129 C   0  0  0  0  0  0  0  0  0  0  0  0
   -8.6638    0.8297   -0.7121 C   0  0  0  0  0  0  0  0  0  0  0  0
   -9.1130    1.2074    0.5199 C   0  0  0  0  0  0  0  0  0  0  0  0
   -8.3216    0.9383    1.5728 N   0  0  0  0  0  0  0  0  0  0  0  0
   -7.1469    0.3262    1.4043 C   0  0  0  0  0  0  0  0  0  0  0  0
    1.0710   -1.6534    0.1333 N   0  0  0  0  0  0  0  0  0  0  0  0
    2.1813   -0.9022    0.0722 C   0  0  0  0  0  0  0  0  0  0  0  0
    3.4784   -1.1815   -0.2273 N   0  0  0  0  0  0  0  0  0  0  0  0
    4.1777   -0.0538   -0.1366 C   0  0  0  0  0  0  0  0  0  0  0  0
    5.6252    0.1442   -0.3701 C   0  0  0  0  0  0  0  0  0  0  0  0
    6.4689   -0.7161   -1.0361 C   0  0  0  0  0  0  0  0  0  0  0  0
    7.7349   -0.1420   -1.0225 C   0  0  0  0  0  0  0  0  0  0  0  0
    7.5951    1.0510   -0.3415 C   0  0  0  0  0  0  0  0  0  0  0  0
    6.3548    1.1610    0.0104 O   0  0  0  0  0  0  0  0  0  0  0  0
    3.3086    0.9093    0.2172 N   0  0  0  0  0  0  0  0  0  0  0  0
    2.0924    0.4318    0.3521 N   0  0  0  0  0  0  0  0  0  0  0  0
    1.5840    2.9800    0.9505 H   0  0  0  0  0  0  0  0  0  0  0  0
   -0.1603    2.7320    1.2305 H   0  0  0  0  0  0  0  0  0  0  0  0
   -1.2439   -2.9017    0.3443 H   0  0  0  0  0  0  0  0  0  0  0  0
   -3.3367   -2.1310    0.9099 H   0  0  0  0  0  0  0  0  0  0  0  0
   -2.5227   -0.8183    1.8335 H   0  0  0  0  0  0  0  0  0  0  0  0
   -2.1792    0.3966   -0.1073 H   0  0  0  0  0  0  0  0  0  0  0  0
   -2.1183   -0.9797   -2.0532 H   0  0  0  0  0  0  0  0  0  0  0  0
   -3.4717   -1.9709   -1.5656 H   0  0  0  0  0  0  0  0  0  0  0  0
   -3.4942    0.5727   -3.0640 H   0  0  0  0  0  0  0  0  0  0  0  0
   -4.8855   -0.4494   -2.7275 H   0  0  0  0  0  0  0  0  0  0  0  0
   -3.7751    1.9000   -1.1248 H   0  0  0  0  0  0  0  0  0  0  0  0
   -5.4535    1.4293   -1.2877 H   0  0  0  0  0  0  0  0  0  0  0  0
   -5.2793   -1.3847   -0.7741 H   0  0  0  0  0  0  0  0  0  0  0  0
   -5.2075   -1.3418    1.0251 H   0  0  0  0  0  0  0  0  0  0  0  0
   -7.1401   -0.0872   -1.9277 H   0  0  0  0  0  0  0  0  0  0  0  0
   -9.2962    1.0405   -1.5871 H   0  0  0  0  0  0  0  0  0  0  0  0
  -10.0826    1.7112    0.6463 H   0  0  0  0  0  0  0  0  0  0  0  0
   -6.5315    0.1256    2.2938 H   0  0  0  0  0  0  0  0  0  0  0  0
    6.1928   -1.6777   -1.4935 H   0  0  0  0  0  0  0  0  0  0  0  0
    8.6558   -0.5524   -1.4624 H   0  0  0  0  0  0  0  0  0  0  0  0
    8.3947    1.7776   -0.1351 H   0  0  0  0  0  0  0  0  0  0  0  0
  1  2  1  0
  2  3  2  0
  3  4  1  0
  4  5  1  0
  5  6  1  0
  6  7  1  0
  7  8  1  0
  8  9  1  0
  9 10  1  0
 10 11  1  0
 11 12  1  0
 12 13  1  0
 13 14  2  0
 14 15  1  0
 15 16  2  0
 16 17  1  0
 17 18  2  0
  4 19  2  0
 19 20  1  0
 20 21  2  0
 21 22  1  0
 22 23  1  0
 23 24  2  0
 24 25  1  0
 25 26  2  0
 26 27  1  0
 22 28  2  0
 28 29  1  0
 29  2  1  0
 11  7  1  0
 18 13  1  0
 29 20  1  0
 27 23  1  0
  1 30  1  0
  1 31  1  0
  5 32  1  0
  6 33  1  0
  6 34  1  0
  7 35  1  6
  8 36  1  0
  8 37  1  0
  9 38  1  0
  9 39  1  0
 10 40  1  0
 10 41  1  0
 12 42  1  0
 12 43  1  0
 14 44  1  0
 15 45  1  0
 16 46  1  0
 18 47  1  0
 24 48  1  0
 25 49  1  0
 26 50  1  0
M  END
>  <Original_Name>  (2) 
CHEMBL369070

>  <ROSHAMBO_ComboTanimoto>  (2) 
1.354

>  <ROSHAMBO_ShapeTanimoto>  (2) 
0.792

>  <ROSHAMBO_ColorTanimoto>  (2) 
0.562

>  <ROSHAMBO_FitTverskyCombo>  (2) 
1.532

>  <ROSHAMBO_FitTversky>  (2) 
0.83

>  <ROSHAMBO_FitColorTversky>  (2) 
0.702

>  <ROSHAMBO_RefTverskyCombo>  (2) 
1.684

>  <ROSHAMBO_RefTversky>  (2) 
0.945

>  <ROSHAMBO_RefColorTversky>  (2) 
0.739

>  <ROSHAMBO_Overlap>  (2) 
1172.369

$$$$
CHEMBL1093480_0_84
     RDKit          3D

 39 43  0  0  0  0  0  0  0  0999 V2000
   -2.2441   -4.0660    0.1210 S   0  0  0  0  0  0  0  0  0  0  0  0
   -1.2172   -2.8437    0.2023 C   0  0  0  0  0  0  0  0  0  0  0  0
    0.6205   -2.9754   -0.0623 S   0  0  0  0  0  0  0  0  0  0  0  0
    0.9357   -1.1979    0.2106 C   0  0  0  0  0  0  0  0  0  0  0  0
   -0.3070   -0.7509    0.4528 C   0  0  0  0  0  0  0  0  0  0  0  0
   -0.3470    0.6308    0.7021 N   0  0  0  0  0  0  0  0  0  0  0  0
    0.7751    1.3609    0.6838 C   0  0  0  0  0  0  0  0  0  0  0  0
    2.0049    0.8967    0.4403 N   0  0  0  0  0  0  0  0  0  0  0  0
    3.2308    1.3364    0.3570 N   0  0  0  0  0  0  0  0  0  0  0  0
    4.0812    0.3315    0.0677 C   0  0  0  0  0  0  0  0  0  0  0  0
    5.5269    0.3861   -0.1125 C   0  0  0  0  0  0  0  0  0  0  0  0
    6.3011   -0.4600   -0.8932 C   0  0  0  0  0  0  0  0  0  0  0  0
    7.6150   -0.0581   -0.7817 C   0  0  0  0  0  0  0  0  0  0  0  0
    7.5865    1.0271    0.0711 C   0  0  0  0  0  0  0  0  0  0  0  0
    6.3444    1.2542    0.4401 O   0  0  0  0  0  0  0  0  0  0  0  0
    3.3352   -0.7853   -0.0316 N   0  0  0  0  0  0  0  0  0  0  0  0
    2.0691   -0.4469    0.1944 C   0  0  0  0  0  0  0  0  0  0  0  0
   -1.3583   -1.5160    0.4556 N   0  0  0  0  0  0  0  0  0  0  0  0
   -2.7713   -1.0545    0.7225 C   0  0  0  0  0  0  0  0  0  0  0  0
   -3.3368   -0.6973   -0.6056 C   0  0  0  0  0  0  0  0  0  0  0  0
   -4.7300   -0.2186   -0.5407 C   0  0  0  0  0  0  0  0  0  0  0  0
   -5.0046    1.1145   -0.3770 C   0  0  0  0  0  0  0  0  0  0  0  0
   -6.3185    1.5871   -0.3132 C   0  0  0  0  0  0  0  0  0  0  0  0
   -7.3485    0.6899   -0.4176 C   0  0  0  0  0  0  0  0  0  0  0  0
   -7.0782   -0.6443   -0.5815 C   0  0  0  0  0  0  0  0  0  0  0  0
   -5.7704   -1.1076   -0.6441 C   0  0  0  0  0  0  0  0  0  0  0  0
    0.6765    2.4375    0.8869 H   0  0  0  0  0  0  0  0  0  0  0  0
    5.9316   -1.3031   -1.4954 H   0  0  0  0  0  0  0  0  0  0  0  0
    8.4951   -0.5052   -1.2669 H   0  0  0  0  0  0  0  0  0  0  0  0
    8.4631    1.6094    0.3912 H   0  0  0  0  0  0  0  0  0  0  0  0
   -3.3577   -1.8627    1.1841 H   0  0  0  0  0  0  0  0  0  0  0  0
   -2.7949   -0.2011    1.4161 H   0  0  0  0  0  0  0  0  0  0  0  0
   -2.7159    0.0963   -1.0467 H   0  0  0  0  0  0  0  0  0  0  0  0
   -3.3369   -1.6132   -1.2149 H   0  0  0  0  0  0  0  0  0  0  0  0
   -4.1720    1.8285   -0.2939 H   0  0  0  0  0  0  0  0  0  0  0  0
   -6.5218    2.6601   -0.1815 H   0  0  0  0  0  0  0  0  0  0  0  0
   -8.3905    1.0393   -0.3701 H   0  0  0  0  0  0  0  0  0  0  0  0
   -7.9103   -1.3590   -0.6646 H   0  0  0  0  0  0  0  0  0  0  0  0
   -5.5696   -2.1811   -0.7759 H   0  0  0  0  0  0  0  0  0  0  0  0
  1  2  2  0
  2  3  1  0
  3  4  1  0
  4  5  2  0
  5  6  1  0
  6  7  2  0
  7  8  1  0
  8  9  1  0
  9 10  2  0
 10 11  1  0
 11 12  2  0
 12 13  1  0
 13 14  2  0
 14 15  1  0
 10 16  1  0
 16 17  2  0
  5 18  1  0
 18 19  1  0
 19 20  1  0
 20 21  1  0
 21 22  2  0
 22 23  1  0
 23 24  2  0
 24 25  1  0
 25 26  2  0
 18  2  1  0
 26 21  1  0
 17  4  1  0
 17  8  1  0
 15 11  1  0
  7 27  1  0
 12 28  1  0
 13 29  1  0
 14 30  1  0
 19 31  1  0
 19 32  1  0
 20 33  1  0
 20 34  1  0
 22 35  1  0
 23 36  1  0
 24 37  1  0
 25 38  1  0
 26 39  1  0
M  END
>  <Original_Name>  (3) 
CHEMBL1093480

>  <ROSHAMBO_ComboTanimoto>  (3) 
1.339

>  <ROSHAMBO_ShapeTanimoto>  (3) 
0.839

>  <ROSHAMBO_ColorTanimoto>  (3) 
0.5

>  <ROSHAMBO_FitTverskyCombo>  (3) 
1.608

>  <ROSHAMBO_FitTversky>  (3) 
0.902

>  <ROSHAMBO_FitColorTversky>  (3) 
0.706

>  <ROSHAMBO_RefTverskyCombo>  (3) 
1.555

>  <ROSHAMBO_RefTversky>  (3) 
0.922

>  <ROSHAMBO_RefColorTversky>  (3) 
0.633

>  <ROSHAMBO_Overlap>  (3) 
1136.238

$$$$
CHEMBL175564_0_99
     RDKit          3D

 50 54  0  0  0  0  0  0  0  0999 V2000
    0.6746    2.2488    1.3524 N   0  0  0  0  0  0  0  0  0  0  0  0
    0.7075    0.9175    0.8402 C   0  0  0  0  0  0  0  0  0  0  0  0
   -0.3677    0.1515    0.7090 N   0  0  0  0  0  0  0  0  0  0  0  0
   -0.3444   -1.1031    0.2273 C   0  0  0  0  0  0  0  0  0  0  0  0
   -1.5311   -1.8928    0.1037 N   0  0  0  0  0  0  0  0  0  0  0  0
   -2.8208   -1.4139    0.4750 C   0  0  0  0  0  0  0  0  0  0  0  0
   -3.2454   -0.2046   -0.2981 C   0  0  1  0  0  0  0  0  0  0  0  0
   -3.3306   -0.3919   -1.7651 C   0  0  0  0  0  0  0  0  0  0  0  0
   -4.2691    0.7184   -2.1854 C   0  0  0  0  0  0  0  0  0  0  0  0
   -4.7640    1.3157   -0.8646 C   0  0  0  0  0  0  0  0  0  0  0  0
   -4.5893    0.1997    0.0450 N   0  0  0  0  0  0  0  0  0  0  0  0
   -5.5763   -0.7839   -0.2638 C   0  0  0  0  0  0  0  0  0  0  0  0
   -6.9830   -0.2834   -0.1051 C   0  0  0  0  0  0  0  0  0  0  0  0
   -7.6281   -0.3838    1.1099 C   0  0  0  0  0  0  0  0  0  0  0  0
   -8.9118    0.0610    1.2702 C   0  0  0  0  0  0  0  0  0  0  0  0
   -9.5718    0.6197    0.1970 C   0  0  0  0  0  0  0  0  0  0  0  0
   -8.9030    0.7072   -1.0045 C   0  0  0  0  0  0  0  0  0  0  0  0
   -7.6430    0.2632   -1.1356 N   0  0  0  0  0  0  0  0  0  0  0  0
    0.8654   -1.5838   -0.1368 N   0  0  0  0  0  0  0  0  0  0  0  0
    1.9856   -0.8305   -0.0171 C   0  0  0  0  0  0  0  0  0  0  0  0
    3.2993   -1.0467   -0.2959 N   0  0  0  0  0  0  0  0  0  0  0  0
    4.0172    0.0434    0.0122 C   0  0  0  0  0  0  0  0  0  0  0  0
    5.4545    0.2816   -0.1118 C   0  0  0  0  0  0  0  0  0  0  0  0
    6.2226    0.0113   -1.2257 C   0  0  0  0  0  0  0  0  0  0  0  0
    7.5143    0.3829   -0.9221 C   0  0  0  0  0  0  0  0  0  0  0  0
    7.4691    0.8628    0.3658 C   0  0  0  0  0  0  0  0  0  0  0  0
    6.2456    0.7857    0.8026 O   0  0  0  0  0  0  0  0  0  0  0  0
    3.1179    0.9409    0.4887 N   0  0  0  0  0  0  0  0  0  0  0  0
    1.9013    0.4221    0.4729 N   0  0  0  0  0  0  0  0  0  0  0  0
    1.5460    2.7926    1.4294 H   0  0  0  0  0  0  0  0  0  0  0  0
   -0.2204    2.6661    1.6451 H   0  0  0  0  0  0  0  0  0  0  0  0
   -1.4496   -2.8492   -0.2699 H   0  0  0  0  0  0  0  0  0  0  0  0
   -3.5545   -2.2150    0.3018 H   0  0  0  0  0  0  0  0  0  0  0  0
   -2.7692   -1.1233    1.5347 H   0  0  0  0  0  0  0  0  0  0  0  0
   -2.4630    0.5227   -0.0354 H   0  0  0  0  0  0  0  0  0  0  0  0
   -2.3440   -0.2782   -2.2380 H   0  0  0  0  0  0  0  0  0  0  0  0
   -3.6781   -1.3933   -2.0589 H   0  0  0  0  0  0  0  0  0  0  0  0
   -3.7361    1.4750   -2.7799 H   0  0  0  0  0  0  0  0  0  0  0  0
   -5.0930    0.3555   -2.8175 H   0  0  0  0  0  0  0  0  0  0  0  0
   -4.1541    2.1796   -0.5615 H   0  0  0  0  0  0  0  0  0  0  0  0
   -5.7932    1.7017   -0.9063 H   0  0  0  0  0  0  0  0  0  0  0  0
   -5.4354   -1.1047   -1.3065 H   0  0  0  0  0  0  0  0  0  0  0  0
   -5.4433   -1.6134    0.4463 H   0  0  0  0  0  0  0  0  0  0  0  0
   -7.1005   -0.8299    1.9659 H   0  0  0  0  0  0  0  0  0  0  0  0
   -9.4122   -0.0264    2.2459 H   0  0  0  0  0  0  0  0  0  0  0  0
  -10.6042    0.9857    0.2969 H   0  0  0  0  0  0  0  0  0  0  0  0
   -9.4117    1.1499   -1.8736 H   0  0  0  0  0  0  0  0  0  0  0  0
    5.8709   -0.4188   -2.1750 H   0  0  0  0  0  0  0  0  0  0  0  0
    8.3974    0.3108   -1.5739 H   0  0  0  0  0  0  0  0  0  0  0  0
    8.3278    1.2491    0.9345 H   0  0  0  0  0  0  0  0  0  0  0  0
  1  2  1  0
  2  3  2  0
  3  4  1  0
  4  5  1  0
  5  6  1  0
  6  7  1  0
  7  8  1  0
  8  9  1  0
  9 10  1  0
 10 11  1  0
 11 12  1  0
 12 13  1  0
 13 14  2  0
 14 15  1  0
 15 16  2  0
 16 17  1  0
 17 18  2  0
  4 19  2  0
 19 20  1  0
 20 21  2  0
 21 22  1  0
 22 23  1  0
 23 24  2  0
 24 25  1  0
 25 26  2  0
 26 27  1  0
 22 28  2  0
 28 29  1  0
 29  2  1  0
 11  7  1  0
 18 13  1  0
 29 20  1  0
 27 23  1  0
  1 30  1  0
  1 31  1  0
  5 32  1  0
  6 33  1  0
  6 34  1  0
  7 35  1  6
  8 36  1  0
  8 37  1  0
  9 38  1  0
  9 39  1  0
 10 40  1  0
 10 41  1  0
 12 42  1  0
 12 43  1  0
 14 44  1  0
 15 45  1  0
 16 46  1  0
 17 47  1  0
 24 48  1  0
 25 49  1  0
 26 50  1  0
M  END
>  <Original_Name>  (4) 
CHEMBL175564

>  <ROSHAMBO_ComboTanimoto>  (4) 
1.304

>  <ROSHAMBO_ShapeTanimoto>  (4) 
0.743

>  <ROSHAMBO_ColorTanimoto>  (4) 
0.561

>  <ROSHAMBO_FitTverskyCombo>  (4) 
1.502

>  <ROSHAMBO_FitTversky>  (4) 
0.801

>  <ROSHAMBO_FitColorTversky>  (4) 
0.701

>  <ROSHAMBO_RefTverskyCombo>  (4) 
1.649

>  <ROSHAMBO_RefTversky>  (4) 
0.912

>  <ROSHAMBO_RefColorTversky>  (4) 
0.738

>  <ROSHAMBO_Overlap>  (4) 
1130.443

$$$$
CHEMBL426821_0_8
     RDKit          3D

 38 40  0  0  0  0  0  0  0  0999 V2000
   -6.6551    1.1584   -0.3908 C   0  0  0  0  0  0  0  0  0  0  0  0
   -5.4330    0.2836   -0.7006 C   0  0  0  0  0  0  0  0  0  0  0  0
   -5.3418   -0.8644    0.2626 C   0  0  0  0  0  0  0  0  0  0  0  0
   -4.1568   -1.7377   -0.0193 C   0  0  0  0  0  0  0  0  0  0  0  0
   -2.9465   -0.9585    0.1006 N   0  0  0  0  0  0  0  0  0  0  0  0
   -1.6690   -1.5364   -0.1184 C   0  0  0  0  0  0  0  0  0  0  0  0
   -1.5870   -2.7421   -0.4209 O   0  0  0  0  0  0  0  0  0  0  0  0
   -0.4629   -0.7467    0.0044 C   0  0  0  0  0  0  0  0  0  0  0  0
    0.7874   -1.2831   -0.2028 C   0  0  0  0  0  0  0  0  0  0  0  0
    1.9256   -0.5760   -0.0964 N   0  0  0  0  0  0  0  0  0  0  0  0
    3.2067   -0.9345   -0.2614 N   0  0  0  0  0  0  0  0  0  0  0  0
    3.9807    0.1347   -0.0439 C   0  0  0  0  0  0  0  0  0  0  0  0
    5.4347    0.1144   -0.1358 C   0  0  0  0  0  0  0  0  0  0  0  0
    6.2721    1.0729   -0.6614 C   0  0  0  0  0  0  0  0  0  0  0  0
    7.5738    0.6141   -0.5291 C   0  0  0  0  0  0  0  0  0  0  0  0
    7.4490   -0.6162    0.0790 C   0  0  0  0  0  0  0  0  0  0  0  0
    6.1805   -0.8627    0.2879 O   0  0  0  0  0  0  0  0  0  0  0  0
    3.1489    1.1476    0.2558 N   0  0  0  0  0  0  0  0  0  0  0  0
    1.8724    0.7249    0.2279 C   0  0  0  0  0  0  0  0  0  0  0  0
    0.6302    1.2887    0.4413 C   0  0  0  0  0  0  0  0  0  0  0  0
    0.5774    2.6602    0.7829 N   0  0  0  0  0  0  0  0  0  0  0  0
   -0.5042    0.5692    0.3315 N   0  0  0  0  0  0  0  0  0  0  0  0
   -6.7768    1.2456    0.6989 H   0  0  0  0  0  0  0  0  0  0  0  0
   -6.5094    2.1587   -0.8247 H   0  0  0  0  0  0  0  0  0  0  0  0
   -7.5550    0.6981   -0.8247 H   0  0  0  0  0  0  0  0  0  0  0  0
   -5.5215   -0.1103   -1.7239 H   0  0  0  0  0  0  0  0  0  0  0  0
   -4.5258    0.8980   -0.6041 H   0  0  0  0  0  0  0  0  0  0  0  0
   -5.2546   -0.4655    1.2840 H   0  0  0  0  0  0  0  0  0  0  0  0
   -6.2497   -1.4755    0.1516 H   0  0  0  0  0  0  0  0  0  0  0  0
   -4.1322   -2.5671    0.7028 H   0  0  0  0  0  0  0  0  0  0  0  0
   -4.2333   -2.1425   -1.0393 H   0  0  0  0  0  0  0  0  0  0  0  0
   -3.0121    0.0386    0.3506 H   0  0  0  0  0  0  0  0  0  0  0  0
    0.8592   -2.3478   -0.4698 H   0  0  0  0  0  0  0  0  0  0  0  0
    5.9638    2.0305   -1.1063 H   0  0  0  0  0  0  0  0  0  0  0  0
    8.4999    1.1196   -0.8402 H   0  0  0  0  0  0  0  0  0  0  0  0
    8.2815   -1.2838    0.3459 H   0  0  0  0  0  0  0  0  0  0  0  0
   -0.3318    3.1147    0.9494 H   0  0  0  0  0  0  0  0  0  0  0  0
    1.4480    3.2044    0.8651 H   0  0  0  0  0  0  0  0  0  0  0  0
  1  2  1  0
  2  3  1  0
  3  4  1  0
  4  5  1  0
  5  6  1  0
  6  7  2  0
  6  8  1  0
  8  9  2  0
  9 10  1  0
 10 11  1  0
 11 12  2  0
 12 13  1  0
 13 14  2  0
 14 15  1  0
 15 16  2  0
 16 17  1  0
 12 18  1  0
 18 19  2  0
 19 20  1  0
 20 21  1  0
 20 22  2  0
 22  8  1  0
 19 10  1  0
 17 13  1  0
  1 23  1  0
  1 24  1  0
  1 25  1  0
  2 26  1  0
  2 27  1  0
  3 28  1  0
  3 29  1  0
  4 30  1  0
  4 31  1  0
  5 32  1  0
  9 33  1  0
 14 34  1  0
 15 35  1  0
 16 36  1  0
 21 37  1  0
 21 38  1  0
M  END
>  <Original_Name>  (5) 
CHEMBL426821

>  <ROSHAMBO_ComboTanimoto>  (5) 
1.302

>  <ROSHAMBO_ShapeTanimoto>  (5) 
0.821

>  <ROSHAMBO_ColorTanimoto>  (5) 
0.481

>  <ROSHAMBO_FitTverskyCombo>  (5) 
1.61

>  <ROSHAMBO_FitTversky>  (5) 
0.97

>  <ROSHAMBO_FitColorTversky>  (5) 
0.639

>  <ROSHAMBO_RefTverskyCombo>  (5) 
1.503

>  <ROSHAMBO_RefTversky>  (5) 
0.842

>  <ROSHAMBO_RefColorTversky>  (5) 
0.661

>  <ROSHAMBO_Overlap>  (5) 
1028.918

$$$$
CHEMBL274274_0_31
     RDKit          3D

 47 51  0  0  0  0  0  0  0  0999 V2000
    0.6436    2.7009    0.7359 N   0  0  0  0  0  0  0  0  0  0  0  0
    0.5538    1.3134    0.5012 C   0  0  0  0  0  0  0  0  0  0  0  0
   -0.5868    0.6413    0.3715 N   0  0  0  0  0  0  0  0  0  0  0  0
   -0.5610   -0.6822    0.1493 C   0  0  0  0  0  0  0  0  0  0  0  0
   -1.7692   -1.3449    0.0202 C   0  0  0  0  0  0  0  0  0  0  0  0
   -2.9657   -0.5896    0.1297 N   0  0  0  0  0  0  0  0  0  0  0  0
   -4.2760   -1.2090    0.0064 C   0  0  0  0  0  0  0  0  0  0  0  0
   -5.3661   -0.2361    0.1541 C   0  0  0  0  0  0  0  0  0  0  0  0
   -5.8967    0.0220    1.4120 C   0  0  0  0  0  0  0  0  0  0  0  0
   -6.9209    0.9335    1.5645 C   0  0  0  0  0  0  0  0  0  0  0  0
   -7.4437    1.6101    0.4790 C   0  0  0  0  0  0  0  0  0  0  0  0
   -6.9153    1.3521   -0.7681 C   0  0  0  0  0  0  0  0  0  0  0  0
   -5.8864    0.4352   -0.9148 C   0  0  0  0  0  0  0  0  0  0  0  0
   -1.7997   -2.6999   -0.2082 C   0  0  0  0  0  0  0  0  0  0  0  0
   -0.6044   -3.3817   -0.3054 C   0  0  0  0  0  0  0  0  0  0  0  0
    0.6090   -2.7556   -0.1823 C   0  0  0  0  0  0  0  0  0  0  0  0
    0.6349   -1.4019    0.0457 C   0  0  0  0  0  0  0  0  0  0  0  0
    1.7865   -0.7108    0.1788 N   0  0  0  0  0  0  0  0  0  0  0  0
    3.0725   -1.0764    0.1361 C   0  0  0  0  0  0  0  0  0  0  0  0
    3.5140   -2.2219   -0.0502 O   0  0  0  0  0  0  0  0  0  0  0  0
    3.8567   -0.0009    0.3284 N   0  0  0  0  0  0  0  0  0  0  0  0
    5.2772    0.0746    0.3618 C   0  0  0  0  0  0  0  0  0  0  0  0
    5.9856   -0.4763    1.4112 C   0  0  0  0  0  0  0  0  0  0  0  0
    7.3635   -0.4150    1.4645 C   0  0  0  0  0  0  0  0  0  0  0  0
    8.1000    0.1988    0.4734 C   0  0  0  0  0  0  0  0  0  0  0  0
    7.4000    0.7521   -0.5792 C   0  0  0  0  0  0  0  0  0  0  0  0
    6.0177    0.6887   -0.6293 C   0  0  0  0  0  0  0  0  0  0  0  0
    3.0321    1.0128    0.4869 N   0  0  0  0  0  0  0  0  0  0  0  0
    1.7502    0.6151    0.4013 C   0  0  0  0  0  0  0  0  0  0  0  0
    1.5665    3.1495    0.8249 H   0  0  0  0  0  0  0  0  0  0  0  0
   -0.2137    3.2659    0.8184 H   0  0  0  0  0  0  0  0  0  0  0  0
   -2.9046    0.4242    0.3011 H   0  0  0  0  0  0  0  0  0  0  0  0
   -4.3534   -1.6797   -0.9847 H   0  0  0  0  0  0  0  0  0  0  0  0
   -4.3753   -1.9518    0.8116 H   0  0  0  0  0  0  0  0  0  0  0  0
   -5.4976   -0.5038    2.2919 H   0  0  0  0  0  0  0  0  0  0  0  0
   -7.3286    1.1251    2.5681 H   0  0  0  0  0  0  0  0  0  0  0  0
   -8.2603    2.3359    0.6066 H   0  0  0  0  0  0  0  0  0  0  0  0
   -7.3120    1.8761   -1.6501 H   0  0  0  0  0  0  0  0  0  0  0  0
   -5.4785    0.2434   -1.9182 H   0  0  0  0  0  0  0  0  0  0  0  0
   -2.7580   -3.2301   -0.3113 H   0  0  0  0  0  0  0  0  0  0  0  0
   -0.6256   -4.4662   -0.4881 H   0  0  0  0  0  0  0  0  0  0  0  0
    1.5450   -3.3275   -0.2649 H   0  0  0  0  0  0  0  0  0  0  0  0
    5.4388   -0.9761    2.2243 H   0  0  0  0  0  0  0  0  0  0  0  0
    7.8874   -0.8674    2.3194 H   0  0  0  0  0  0  0  0  0  0  0  0
    9.1981    0.2454    0.5199 H   0  0  0  0  0  0  0  0  0  0  0  0
    7.9487    1.2514   -1.3913 H   0  0  0  0  0  0  0  0  0  0  0  0
    5.4935    1.1410   -1.4841 H   0  0  0  0  0  0  0  0  0  0  0  0
  1  2  1  0
  2  3  2  0
  3  4  1  0
  4  5  2  0
  5  6  1  0
  6  7  1  0
  7  8  1  0
  8  9  2  0
  9 10  1  0
 10 11  2  0
 11 12  1  0
 12 13  2  0
  5 14  1  0
 14 15  2  0
 15 16  1  0
 16 17  2  0
 17 18  1  0
 18 19  1  0
 19 20  2  0
 19 21  1  0
 21 22  1  0
 22 23  2  0
 23 24  1  0
 24 25  2  0
 25 26  1  0
 26 27  2  0
 21 28  1  0
 28 29  2  0
 29  2  1  0
 17  4  1  0
 29 18  1  0
 13  8  1  0
 27 22  1  0
  1 30  1  0
  1 31  1  0
  6 32  1  0
  7 33  1  0
  7 34  1  0
  9 35  1  0
 10 36  1  0
 11 37  1  0
 12 38  1  0
 13 39  1  0
 14 40  1  0
 15 41  1  0
 16 42  1  0
 23 43  1  0
 24 44  1  0
 25 45  1  0
 26 46  1  0
 27 47  1  0
M  END
>  <Original_Name>  (6) 
CHEMBL274274

>  <ROSHAMBO_ComboTanimoto>  (6) 
1.241

>  <ROSHAMBO_ShapeTanimoto>  (6) 
0.794

>  <ROSHAMBO_ColorTanimoto>  (6) 
0.447

>  <ROSHAMBO_FitTverskyCombo>  (6) 
1.467

>  <ROSHAMBO_FitTversky>  (6) 
0.828

>  <ROSHAMBO_FitColorTversky>  (6) 
0.639

>  <ROSHAMBO_RefTverskyCombo>  (6) 
1.549

>  <ROSHAMBO_RefTversky>  (6) 
0.951

>  <ROSHAMBO_RefColorTversky>  (6) 
0.598

>  <ROSHAMBO_Overlap>  (6) 
1179.819

$$$$
CHEMBL354419_0_18
     RDKit          3D

 46 50  0  0  0  0  0  0  0  0999 V2000
    1.1386    2.9115   -0.2443 N   0  0  0  0  0  0  0  0  0  0  0  0
    1.1970    1.4969   -0.1483 C   0  0  0  0  0  0  0  0  0  0  0  0
    0.0994    0.7549   -0.1116 N   0  0  0  0  0  0  0  0  0  0  0  0
    0.0817   -0.6106   -0.0205 C   0  0  0  0  0  0  0  0  0  0  0  0
   -1.1884   -1.3158    0.0218 C   0  0  0  0  0  0  0  0  0  0  0  0
   -1.2504   -2.6731    0.1086 C   0  0  0  0  0  0  0  0  0  0  0  0
   -2.4821   -3.3321    0.1580 C   0  0  0  0  0  0  0  0  0  0  0  0
   -3.6369   -2.5883    0.1177 C   0  0  0  0  0  0  0  0  0  0  0  0
   -3.6152   -1.2227    0.0307 C   0  0  0  0  0  0  0  0  0  0  0  0
   -4.7904   -0.4305    0.0033 N   0  0  0  0  0  0  0  0  0  0  0  0
   -6.0731   -1.0321    0.2786 C   0  0  0  0  0  0  0  0  0  0  0  0
   -6.9959   -0.0545    1.0256 C   0  0  0  0  0  0  0  0  0  0  0  0
   -7.1522    1.1294    0.1516 C   0  0  0  0  0  0  0  0  0  0  0  0
   -8.1168    1.8565    0.2420 O   0  0  0  0  0  0  0  0  0  0  0  0
   -6.0845    1.4032   -0.8456 C   0  0  0  0  0  0  0  0  0  0  0  0
   -4.7242    0.9952   -0.3052 C   0  0  0  0  0  0  0  0  0  0  0  0
   -2.3644   -0.6078   -0.0164 C   0  0  0  0  0  0  0  0  0  0  0  0
    1.3095   -1.2189    0.0345 C   0  0  0  0  0  0  0  0  0  0  0  0
    2.4641   -0.4723   -0.0017 C   0  0  0  0  0  0  0  0  0  0  0  0
    3.7804   -0.8242    0.0394 N   0  0  0  0  0  0  0  0  0  0  0  0
    4.5384    0.2977   -0.0250 C   0  0  0  0  0  0  0  0  0  0  0  0
    5.9929    0.3736   -0.0099 C   0  0  0  0  0  0  0  0  0  0  0  0
    6.9255   -0.5438   -0.4270 C   0  0  0  0  0  0  0  0  0  0  0  0
    8.1737   -0.0063   -0.2058 C   0  0  0  0  0  0  0  0  0  0  0  0
    7.9379    1.2379    0.3467 C   0  0  0  0  0  0  0  0  0  0  0  0
    6.6564    1.4064    0.4377 O   0  0  0  0  0  0  0  0  0  0  0  0
    3.6524    1.3051   -0.1041 N   0  0  0  0  0  0  0  0  0  0  0  0
    2.4041    0.8784   -0.0925 N   0  0  0  0  0  0  0  0  0  0  0  0
    2.0085    3.4623   -0.2708 H   0  0  0  0  0  0  0  0  0  0  0  0
    0.2262    3.3875   -0.2874 H   0  0  0  0  0  0  0  0  0  0  0  0
   -0.3196   -3.2584    0.1403 H   0  0  0  0  0  0  0  0  0  0  0  0
   -2.5263   -4.4289    0.2281 H   0  0  0  0  0  0  0  0  0  0  0  0
   -4.6069   -3.1056    0.1564 H   0  0  0  0  0  0  0  0  0  0  0  0
   -6.5470   -1.3178   -0.6720 H   0  0  0  0  0  0  0  0  0  0  0  0
   -5.9145   -1.9162    0.9136 H   0  0  0  0  0  0  0  0  0  0  0  0
   -7.9744   -0.5220    1.2103 H   0  0  0  0  0  0  0  0  0  0  0  0
   -6.5716    0.2253    2.0012 H   0  0  0  0  0  0  0  0  0  0  0  0
   -6.2936    0.8339   -1.7633 H   0  0  0  0  0  0  0  0  0  0  0  0
   -6.0699    2.4821   -1.0594 H   0  0  0  0  0  0  0  0  0  0  0  0
   -3.9474    1.1812   -1.0614 H   0  0  0  0  0  0  0  0  0  0  0  0
   -4.4712    1.5772    0.5933 H   0  0  0  0  0  0  0  0  0  0  0  0
   -2.3180    0.4890   -0.0869 H   0  0  0  0  0  0  0  0  0  0  0  0
    1.3717   -2.3147    0.1083 H   0  0  0  0  0  0  0  0  0  0  0  0
    6.7132   -1.5322   -0.8607 H   0  0  0  0  0  0  0  0  0  0  0  0
    9.1484   -0.4679   -0.4222 H   0  0  0  0  0  0  0  0  0  0  0  0
    8.7064    1.9614    0.6562 H   0  0  0  0  0  0  0  0  0  0  0  0
  1  2  1  0
  2  3  2  0
  3  4  1  0
  4  5  1  0
  5  6  2  0
  6  7  1  0
  7  8  2  0
  8  9  1  0
  9 10  1  0
 10 11  1  0
 11 12  1  0
 12 13  1  0
 13 14  2  0
 13 15  1  0
 15 16  1  0
  9 17  2  0
  4 18  2  0
 18 19  1  0
 19 20  2  0
 20 21  1  0
 21 22  1  0
 22 23  2  0
 23 24  1  0
 24 25  2  0
 25 26  1  0
 21 27  2  0
 27 28  1  0
 28  2  1  0
 17  5  1  0
 28 19  1  0
 16 10  1  0
 26 22  1  0
  1 29  1  0
  1 30  1  0
  6 31  1  0
  7 32  1  0
  8 33  1  0
 11 34  1  0
 11 35  1  0
 12 36  1  0
 12 37  1  0
 15 38  1  0
 15 39  1  0
 16 40  1  0
 16 41  1  0
 17 42  1  0
 18 43  1  0
 23 44  1  0
 24 45  1  0
 25 46  1  0
M  END
>  <Original_Name>  (7) 
CHEMBL354419

>  <ROSHAMBO_ComboTanimoto>  (7) 
1.219

>  <ROSHAMBO_ShapeTanimoto>  (7) 
0.821

>  <ROSHAMBO_ColorTanimoto>  (7) 
0.398

>  <ROSHAMBO_FitTverskyCombo>  (7) 
1.488

>  <ROSHAMBO_FitTversky>  (7) 
0.859

>  <ROSHAMBO_FitColorTversky>  (7) 
0.63

>  <ROSHAMBO_RefTverskyCombo>  (7) 
1.468

>  <ROSHAMBO_RefTversky>  (7) 
0.949

>  <ROSHAMBO_RefColorTversky>  (7) 
0.519

>  <ROSHAMBO_Overlap>  (7) 
1174.775

$$$$
CHEMBL183674_0_90
     RDKit          3D

 39 42  0  0  0  0  0  0  0  0999 V2000
    0.9688   -3.2529   -0.2756 N   0  0  0  0  0  0  0  0  0  0  0  0
    0.7186   -1.8793   -0.0148 C   0  0  0  0  0  0  0  0  0  0  0  0
   -0.5462   -1.4468    0.1261 N   0  0  0  0  0  0  0  0  0  0  0  0
   -0.8199   -0.1319    0.3402 C   0  0  0  0  0  0  0  0  0  0  0  0
   -2.1329    0.4176    0.4036 C   0  0  0  0  0  0  0  0  0  0  0  0
   -3.2866    0.8873    0.4425 C   0  0  0  0  0  0  0  0  0  0  0  0
   -4.6236    1.4333    0.4685 C   0  0  0  0  0  0  0  0  0  0  0  0
   -4.7377    2.6451   -0.1896 O   0  0  0  0  0  0  0  0  0  0  0  0
   -5.6555    0.4924   -0.1218 C   0  0  0  0  0  0  0  0  0  0  0  0
   -6.9352    0.9873    0.0636 O   0  0  0  0  0  0  0  0  0  0  0  0
   -5.3353    0.0987   -1.5553 C   0  0  0  0  0  0  0  0  0  0  0  0
   -5.5716   -1.3735   -1.1950 C   0  0  0  0  0  0  0  0  0  0  0  0
   -5.5585   -0.9472    0.2838 C   0  0  0  0  0  0  0  0  0  0  0  0
    0.2863    0.7100    0.4059 C   0  0  0  0  0  0  0  0  0  0  0  0
    1.5545    0.3243    0.2728 N   0  0  0  0  0  0  0  0  0  0  0  0
    2.7271    0.9135    0.2675 N   0  0  0  0  0  0  0  0  0  0  0  0
    3.7120    0.0340    0.0548 C   0  0  0  0  0  0  0  0  0  0  0  0
    5.1549    0.3468   -0.0500 C   0  0  0  0  0  0  0  0  0  0  0  0
    5.6859    1.6184   -0.1824 C   0  0  0  0  0  0  0  0  0  0  0  0
    7.0522    1.5230   -0.2543 C   0  0  0  0  0  0  0  0  0  0  0  0
    7.3222    0.1877   -0.1632 C   0  0  0  0  0  0  0  0  0  0  0  0
    6.1735   -0.4734   -0.0428 O   0  0  0  0  0  0  0  0  0  0  0  0
    3.1198   -1.1481   -0.0736 N   0  0  0  0  0  0  0  0  0  0  0  0
    1.7741   -1.0318    0.0517 C   0  0  0  0  0  0  0  0  0  0  0  0
    1.9365   -3.5885   -0.3843 H   0  0  0  0  0  0  0  0  0  0  0  0
    0.1825   -3.9134   -0.3560 H   0  0  0  0  0  0  0  0  0  0  0  0
   -4.8209    1.5823    1.5404 H   0  0  0  0  0  0  0  0  0  0  0  0
   -4.8065    3.3761    0.4745 H   0  0  0  0  0  0  0  0  0  0  0  0
   -7.1236    1.0602    1.0328 H   0  0  0  0  0  0  0  0  0  0  0  0
   -6.0392    0.4986   -2.3000 H   0  0  0  0  0  0  0  0  0  0  0  0
   -4.3924    0.4153   -2.0251 H   0  0  0  0  0  0  0  0  0  0  0  0
   -6.5305   -1.7828   -1.5454 H   0  0  0  0  0  0  0  0  0  0  0  0
   -4.9161   -2.1726   -1.5715 H   0  0  0  0  0  0  0  0  0  0  0  0
   -6.4217   -1.3089    0.8618 H   0  0  0  0  0  0  0  0  0  0  0  0
   -4.7493   -1.2818    0.9495 H   0  0  0  0  0  0  0  0  0  0  0  0
    0.0984    1.7795    0.5817 H   0  0  0  0  0  0  0  0  0  0  0  0
    5.1067    2.5527   -0.2232 H   0  0  0  0  0  0  0  0  0  0  0  0
    7.7749    2.3452   -0.3621 H   0  0  0  0  0  0  0  0  0  0  0  0
    8.3238   -0.2665   -0.1856 H   0  0  0  0  0  0  0  0  0  0  0  0
  1  2  1  0
  2  3  2  0
  3  4  1  0
  4  5  1  0
  5  6  3  0
  6  7  1  0
  7  8  1  0
  7  9  1  0
  9 10  1  0
  9 11  1  0
 11 12  1  0
 12 13  1  0
  4 14  2  0
 14 15  1  0
 15 16  1  0
 16 17  2  0
 17 18  1  0
 18 19  2  0
 19 20  1  0
 20 21  2  0
 21 22  1  0
 17 23  1  0
 23 24  2  0
 24  2  1  0
 13  9  1  0
 24 15  1  0
 22 18  1  0
  1 25  1  0
  1 26  1  0
  7 27  1  0
  8 28  1  0
 10 29  1  0
 11 30  1  0
 11 31  1  0
 12 32  1  0
 12 33  1  0
 13 34  1  0
 13 35  1  0
 14 36  1  0
 19 37  1  0
 20 38  1  0
 21 39  1  0
M  END
>  <Original_Name>  (8) 
CHEMBL183674

>  <ROSHAMBO_ComboTanimoto>  (8) 
1.212

>  <ROSHAMBO_ShapeTanimoto>  (8) 
0.75

>  <ROSHAMBO_ColorTanimoto>  (8) 
0.463

>  <ROSHAMBO_FitTverskyCombo>  (8) 
1.486

>  <ROSHAMBO_FitTversky>  (8) 
0.88

>  <ROSHAMBO_FitColorTversky>  (8) 
0.607

>  <ROSHAMBO_RefTverskyCombo>  (8) 
1.496

>  <ROSHAMBO_RefTversky>  (8) 
0.835

>  <ROSHAMBO_RefColorTversky>  (8) 
0.661

>  <ROSHAMBO_Overlap>  (8) 
1025.014

$$$$
CHEMBL179265_0_2
     RDKit          3D

 53 58  0  0  0  0  0  0  0  0999 V2000
    1.2998    2.3571    1.1668 N   0  0  0  0  0  0  0  0  0  0  0  0
    1.2442    1.0220    0.6845 C   0  0  0  0  0  0  0  0  0  0  0  0
    0.0737    0.3346    0.6202 N   0  0  0  0  0  0  0  0  0  0  0  0
    0.0148   -0.9298    0.1643 C   0  0  0  0  0  0  0  0  0  0  0  0
   -1.2778   -1.6079    0.1235 C   0  0  0  0  0  0  0  0  0  0  0  0
   -1.4230   -2.8984   -0.3283 C   0  0  0  0  0  0  0  0  0  0  0  0
   -2.6564   -3.5118   -0.3544 C   0  0  0  0  0  0  0  0  0  0  0  0
   -3.7869   -2.8262    0.0811 C   0  0  0  0  0  0  0  0  0  0  0  0
   -3.6829   -1.5265    0.5429 C   0  0  0  0  0  0  0  0  0  0  0  0
   -4.8190   -0.7840    1.0024 N   0  0  0  0  0  0  0  0  0  0  0  0
   -6.1459   -1.2832    1.0780 C   0  0  0  0  0  0  0  0  0  0  0  0
   -7.0322   -0.4550    0.1379 C   0  0  0  0  0  0  0  0  0  0  0  0
   -6.7157    1.0183    0.2765 C   0  0  0  0  0  0  0  0  0  0  0  0
   -5.9176    1.2702    1.5573 C   0  0  0  0  0  0  0  0  0  0  0  0
   -4.5884    0.5861    1.4216 C   0  0  0  0  0  0  0  0  0  0  0  0
   -7.8840    1.7455    0.2766 O   0  0  0  0  0  0  0  0  0  0  0  0
   -7.7527    2.7700   -0.6513 C   0  0  0  0  0  0  0  0  0  0  0  0
   -6.2968    2.7554   -1.0652 C   0  0  0  0  0  0  0  0  0  0  0  0
   -5.9437    1.4349   -0.7946 O   0  0  0  0  0  0  0  0  0  0  0  0
   -2.4285   -0.9708    0.5444 C   0  0  0  0  0  0  0  0  0  0  0  0
    1.1970   -1.5014   -0.2366 C   0  0  0  0  0  0  0  0  0  0  0  0
    2.4064   -0.7972   -0.1723 C   0  0  0  0  0  0  0  0  0  0  0  0
    3.6809   -1.0891   -0.4851 N   0  0  0  0  0  0  0  0  0  0  0  0
    4.4835   -0.0505   -0.2322 C   0  0  0  0  0  0  0  0  0  0  0  0
    5.9247    0.1012   -0.4087 C   0  0  0  0  0  0  0  0  0  0  0  0
    6.5735    1.3264   -0.6164 C   0  0  0  0  0  0  0  0  0  0  0  0
    7.9160    1.0637   -0.7361 C   0  0  0  0  0  0  0  0  0  0  0  0
    8.0545   -0.2946   -0.6009 C   0  0  0  0  0  0  0  0  0  0  0  0
    6.8558   -0.7924   -0.4129 O   0  0  0  0  0  0  0  0  0  0  0  0
    3.6556    0.9194    0.2582 N   0  0  0  0  0  0  0  0  0  0  0  0
    2.4134    0.4663    0.2916 N   0  0  0  0  0  0  0  0  0  0  0  0
    2.2013    2.8540    1.2044 H   0  0  0  0  0  0  0  0  0  0  0  0
    0.4387    2.8283    1.4788 H   0  0  0  0  0  0  0  0  0  0  0  0
   -0.5377   -3.4515   -0.6753 H   0  0  0  0  0  0  0  0  0  0  0  0
   -2.7481   -4.5452   -0.7201 H   0  0  0  0  0  0  0  0  0  0  0  0
   -4.7690   -3.3211    0.0579 H   0  0  0  0  0  0  0  0  0  0  0  0
   -6.1632   -2.3390    0.7698 H   0  0  0  0  0  0  0  0  0  0  0  0
   -6.5185   -1.2084    2.1102 H   0  0  0  0  0  0  0  0  0  0  0  0
   -6.8510   -0.7686   -0.9008 H   0  0  0  0  0  0  0  0  0  0  0  0
   -8.0867   -0.6201    0.4040 H   0  0  0  0  0  0  0  0  0  0  0  0
   -5.7680    2.3510    1.6968 H   0  0  0  0  0  0  0  0  0  0  0  0
   -6.4614    0.8762    2.4286 H   0  0  0  0  0  0  0  0  0  0  0  0
   -3.9777    1.1069    0.6694 H   0  0  0  0  0  0  0  0  0  0  0  0
   -4.0550    0.6024    2.3835 H   0  0  0  0  0  0  0  0  0  0  0  0
   -8.4015    2.5871   -1.5206 H   0  0  0  0  0  0  0  0  0  0  0  0
   -8.0480    3.7425   -0.2305 H   0  0  0  0  0  0  0  0  0  0  0  0
   -6.1804    2.9916   -2.1332 H   0  0  0  0  0  0  0  0  0  0  0  0
   -5.6758    3.5007   -0.5466 H   0  0  0  0  0  0  0  0  0  0  0  0
   -2.3318    0.0624    0.9092 H   0  0  0  0  0  0  0  0  0  0  0  0
    1.1945   -2.5338   -0.6162 H   0  0  0  0  0  0  0  0  0  0  0  0
    6.0954    2.3155   -0.6730 H   0  0  0  0  0  0  0  0  0  0  0  0
    8.7193    1.7956   -0.9063 H   0  0  0  0  0  0  0  0  0  0  0  0
    8.9965   -0.8611   -0.6426 H   0  0  0  0  0  0  0  0  0  0  0  0
  1  2  1  0
  2  3  2  0
  3  4  1  0
  4  5  1  0
  5  6  2  0
  6  7  1  0
  7  8  2  0
  8  9  1  0
  9 10  1  0
 10 11  1  0
 11 12  1  0
 12 13  1  0
 13 14  1  0
 14 15  1  0
 13 16  1  0
 16 17  1  0
 17 18  1  0
 18 19  1  0
  9 20  2  0
  4 21  2  0
 21 22  1  0
 22 23  2  0
 23 24  1  0
 24 25  1  0
 25 26  2  0
 26 27  1  0
 27 28  2  0
 28 29  1  0
 24 30  2  0
 30 31  1  0
 31  2  1  0
 20  5  1  0
 31 22  1  0
 15 10  1  0
 29 25  1  0
 19 13  1  0
  1 32  1  0
  1 33  1  0
  6 34  1  0
  7 35  1  0
  8 36  1  0
 11 37  1  0
 11 38  1  0
 12 39  1  0
 12 40  1  0
 14 41  1  0
 14 42  1  0
 15 43  1  0
 15 44  1  0
 17 45  1  0
 17 46  1  0
 18 47  1  0
 18 48  1  0
 20 49  1  0
 21 50  1  0
 26 51  1  0
 27 52  1  0
 28 53  1  0
M  END
>  <Original_Name>  (9) 
CHEMBL179265

>  <ROSHAMBO_ComboTanimoto>  (9) 
1.198

>  <ROSHAMBO_ShapeTanimoto>  (9) 
0.736

>  <ROSHAMBO_ColorTanimoto>  (9) 
0.462

>  <ROSHAMBO_FitTverskyCombo>  (9) 
1.443

>  <ROSHAMBO_FitTversky>  (9) 
0.771

>  <ROSHAMBO_FitColorTversky>  (9) 
0.673

>  <ROSHAMBO_RefTverskyCombo>  (9) 
1.539

>  <ROSHAMBO_RefTversky>  (9) 
0.943

>  <ROSHAMBO_RefColorTversky>  (9) 
0.596

>  <ROSHAMBO_Overlap>  (9) 
1174.779

$$$$
CHEMBL248298_0_60
     RDKit          3D

 34 37  0  0  0  0  0  0  0  0999 V2000
   -5.0727   -0.2742   -0.4917 C   0  0  0  0  0  0  0  0  0  0  0  0
   -3.6334   -0.6919   -0.8203 C   0  0  0  0  0  0  0  0  0  0  0  0
   -2.9396   -0.8797    0.5096 C   0  0  0  0  0  0  0  0  0  0  0  0
   -1.5630   -1.2777    0.3676 N   0  0  0  0  0  0  0  0  0  0  0  0
   -1.0852   -2.5206    0.2972 C   0  0  0  0  0  0  0  0  0  0  0  0
    0.2505   -2.4506    0.1680 N   0  0  0  0  0  0  0  0  0  0  0  0
    0.6107   -1.1493    0.1577 C   0  0  0  0  0  0  0  0  0  0  0  0
   -0.5333   -0.4229    0.2833 C   0  0  0  0  0  0  0  0  0  0  0  0
   -0.4703    0.9420    0.3032 N   0  0  0  0  0  0  0  0  0  0  0  0
    0.7140    1.5502    0.1992 C   0  0  0  0  0  0  0  0  0  0  0  0
    0.8499    2.9588    0.2128 N   0  0  0  0  0  0  0  0  0  0  0  0
    1.8592    0.8114    0.0732 N   0  0  0  0  0  0  0  0  0  0  0  0
    3.1333    1.1624   -0.0447 N   0  0  0  0  0  0  0  0  0  0  0  0
    3.9360    0.0895   -0.1436 C   0  0  0  0  0  0  0  0  0  0  0  0
    5.4011    0.0914   -0.2868 C   0  0  0  0  0  0  0  0  0  0  0  0
    6.1745    1.1024   -0.8247 C   0  0  0  0  0  0  0  0  0  0  0  0
    7.4971    0.7027   -0.7703 C   0  0  0  0  0  0  0  0  0  0  0  0
    7.4648   -0.5520   -0.1929 C   0  0  0  0  0  0  0  0  0  0  0  0
    6.2369   -0.8573    0.0662 O   0  0  0  0  0  0  0  0  0  0  0  0
    3.1173   -0.9769   -0.0839 N   0  0  0  0  0  0  0  0  0  0  0  0
    1.8488   -0.5299    0.0486 C   0  0  0  0  0  0  0  0  0  0  0  0
   -5.2033   -0.2363    0.5999 H   0  0  0  0  0  0  0  0  0  0  0  0
   -5.2731    0.7191   -0.9196 H   0  0  0  0  0  0  0  0  0  0  0  0
   -5.7737   -1.0060   -0.9196 H   0  0  0  0  0  0  0  0  0  0  0  0
   -3.6292   -1.6329   -1.3899 H   0  0  0  0  0  0  0  0  0  0  0  0
   -3.1253    0.0647   -1.4363 H   0  0  0  0  0  0  0  0  0  0  0  0
   -2.9758    0.0704    1.0627 H   0  0  0  0  0  0  0  0  0  0  0  0
   -3.4638   -1.6838    1.0469 H   0  0  0  0  0  0  0  0  0  0  0  0
   -1.6817   -3.4439    0.3378 H   0  0  0  0  0  0  0  0  0  0  0  0
    1.7830    3.3870    0.1298 H   0  0  0  0  0  0  0  0  0  0  0  0
    0.0157    3.5558    0.3057 H   0  0  0  0  0  0  0  0  0  0  0  0
    5.8033    2.0571   -1.2256 H   0  0  0  0  0  0  0  0  0  0  0  0
    8.3811    1.2612   -1.1118 H   0  0  0  0  0  0  0  0  0  0  0  0
    8.3399   -1.1860    0.0123 H   0  0  0  0  0  0  0  0  0  0  0  0
  1  2  1  0
  2  3  1  0
  3  4  1  0
  4  5  1  0
  5  6  2  0
  6  7  1  0
  7  8  2  0
  8  9  1  0
  9 10  2  0
 10 11  1  0
 10 12  1  0
 12 13  1  0
 13 14  2  0
 14 15  1  0
 15 16  2  0
 16 17  1  0
 17 18  2  0
 18 19  1  0
 14 20  1  0
 20 21  2  0
  8  4  1  0
 21 12  1  0
 21  7  1  0
 19 15  1  0
  1 22  1  0
  1 23  1  0
  1 24  1  0
  2 25  1  0
  2 26  1  0
  3 27  1  0
  3 28  1  0
  5 29  1  0
 11 30  1  0
 11 31  1  0
 16 32  1  0
 17 33  1  0
 18 34  1  0
M  END
>  <Original_Name>  (10) 
CHEMBL248298

>  <ROSHAMBO_ComboTanimoto>  (10) 
1.193

>  <ROSHAMBO_ShapeTanimoto>  (10) 
0.739

>  <ROSHAMBO_ColorTanimoto>  (10) 
0.454

>  <ROSHAMBO_FitTverskyCombo>  (10) 
1.53

>  <ROSHAMBO_FitTversky>  (10) 
0.916

>  <ROSHAMBO_FitColorTversky>  (10) 
0.614

>  <ROSHAMBO_RefTverskyCombo>  (10) 
1.429

>  <ROSHAMBO_RefTversky>  (10) 
0.793

>  <ROSHAMBO_RefColorTversky>  (10) 
0.636

>  <ROSHAMBO_Overlap>  (10) 
968.62

$$$$
CHEMBL183674_0_59
     RDKit          3D

 39 42  0  0  0  0  0  0  0  0999 V2000
    0.8061   -3.1834    0.0641 N   0  0  0  0  0  0  0  0  0  0  0  0
    0.5789   -1.7745    0.0349 C   0  0  0  0  0  0  0  0  0  0  0  0
   -0.6609   -1.2549    0.0310 N   0  0  0  0  0  0  0  0  0  0  0  0
   -0.8763    0.0723    0.0035 C   0  0  0  0  0  0  0  0  0  0  0  0
   -2.2046    0.6187   -0.0004 C   0  0  0  0  0  0  0  0  0  0  0  0
   -3.3228    1.0996   -0.0125 C   0  0  0  0  0  0  0  0  0  0  0  0
   -4.6743    1.6813   -0.0406 C   0  0  0  0  0  0  0  0  0  0  0  0
   -4.9185    2.4576    1.0876 O   0  0  0  0  0  0  0  0  0  0  0  0
   -5.6450    0.5234   -0.1269 C   0  0  0  0  0  0  0  0  0  0  0  0
   -6.9467    0.9662   -0.1982 O   0  0  0  0  0  0  0  0  0  0  0  0
   -5.2747   -0.5006   -1.1484 C   0  0  0  0  0  0  0  0  0  0  0  0
   -5.5875   -1.5770   -0.1305 C   0  0  0  0  0  0  0  0  0  0  0  0
   -5.3813   -0.5221    0.9497 C   0  0  0  0  0  0  0  0  0  0  0  0
    0.2603    0.8711   -0.0205 C   0  0  0  0  0  0  0  0  0  0  0  0
    1.4971    0.3656   -0.0169 N   0  0  0  0  0  0  0  0  0  0  0  0
    2.6935    0.9233   -0.0360 N   0  0  0  0  0  0  0  0  0  0  0  0
    3.6471   -0.0227   -0.0211 C   0  0  0  0  0  0  0  0  0  0  0  0
    5.0753    0.2410   -0.0352 C   0  0  0  0  0  0  0  0  0  0  0  0
    6.1055   -0.6307    0.3244 C   0  0  0  0  0  0  0  0  0  0  0  0
    7.2947    0.0417    0.1550 C   0  0  0  0  0  0  0  0  0  0  0  0
    6.9484    1.2929   -0.2994 C   0  0  0  0  0  0  0  0  0  0  0  0
    5.6569    1.3711   -0.3969 O   0  0  0  0  0  0  0  0  0  0  0  0
    3.0362   -1.2132    0.0083 N   0  0  0  0  0  0  0  0  0  0  0  0
    1.6921   -0.9610    0.0107 C   0  0  0  0  0  0  0  0  0  0  0  0
    1.7686   -3.5500    0.0664 H   0  0  0  0  0  0  0  0  0  0  0  0
    0.0074   -3.8336    0.0830 H   0  0  0  0  0  0  0  0  0  0  0  0
   -4.7876    2.3537   -0.9037 H   0  0  0  0  0  0  0  0  0  0  0  0
   -4.7493    1.9196    1.9013 H   0  0  0  0  0  0  0  0  0  0  0  0
   -7.3045    1.0879    0.7168 H   0  0  0  0  0  0  0  0  0  0  0  0
   -5.9241   -0.5123   -2.0362 H   0  0  0  0  0  0  0  0  0  0  0  0
   -4.3015   -0.4674   -1.6601 H   0  0  0  0  0  0  0  0  0  0  0  0
   -6.6092   -1.9803   -0.1887 H   0  0  0  0  0  0  0  0  0  0  0  0
   -5.0456   -2.5341   -0.1154 H   0  0  0  0  0  0  0  0  0  0  0  0
   -6.1232   -0.5438    1.7615 H   0  0  0  0  0  0  0  0  0  0  0  0
   -4.4757   -0.4983    1.5738 H   0  0  0  0  0  0  0  0  0  0  0  0
    0.1369    1.9640   -0.0435 H   0  0  0  0  0  0  0  0  0  0  0  0
    5.9881   -1.6656    0.6782 H   0  0  0  0  0  0  0  0  0  0  0  0
    8.3086   -0.3411    0.3434 H   0  0  0  0  0  0  0  0  0  0  0  0
    7.6551    2.1001   -0.5420 H   0  0  0  0  0  0  0  0  0  0  0  0
  1  2  1  0
  2  3  2  0
  3  4  1  0
  4  5  1  0
  5  6  3  0
  6  7  1  0
  7  8  1  0
  7  9  1  0
  9 10  1  0
  9 11  1  0
 11 12  1  0
 12 13  1  0
  4 14  2  0
 14 15  1  0
 15 16  1  0
 16 17  2  0
 17 18  1  0
 18 19  2  0
 19 20  1  0
 20 21  2  0
 21 22  1  0
 17 23  1  0
 23 24  2  0
 24  2  1  0
 13  9  1  0
 24 15  1  0
 22 18  1  0
  1 25  1  0
  1 26  1  0
  7 27  1  0
  8 28  1  0
 10 29  1  0
 11 30  1  0
 11 31  1  0
 12 32  1  0
 12 33  1  0
 13 34  1  0
 13 35  1  0
 14 36  1  0
 19 37  1  0
 20 38  1  0
 21 39  1  0
M  END
>  <Original_Name>  (11) 
CHEMBL183674

>  <ROSHAMBO_ComboTanimoto>  (11) 
1.176

>  <ROSHAMBO_ShapeTanimoto>  (11) 
0.731

>  <ROSHAMBO_ColorTanimoto>  (11) 
0.445

>  <ROSHAMBO_FitTverskyCombo>  (11) 
1.456

>  <ROSHAMBO_FitTversky>  (11) 
0.865

>  <ROSHAMBO_FitColorTversky>  (11) 
0.591

>  <ROSHAMBO_RefTverskyCombo>  (11) 
1.468

>  <ROSHAMBO_RefTversky>  (11) 
0.825

>  <ROSHAMBO_RefColorTversky>  (11) 
0.643

>  <ROSHAMBO_Overlap>  (11) 
1012.354

$$$$
CHEMBL409915_0_68
     RDKit          3D

 36 39  0  0  0  0  0  0  0  0999 V2000
    0.3024    3.2606   -0.1323 N   0  0  0  0  0  0  0  0  0  0  0  0
    0.9062    1.9818   -0.0732 C   0  0  0  0  0  0  0  0  0  0  0  0
    2.2343    1.8004   -0.0548 N   0  0  0  0  0  0  0  0  0  0  0  0
    2.8616    0.6146    0.0005 C   0  0  0  0  0  0  0  0  0  0  0  0
    4.3197    0.5106    0.0167 C   0  0  0  0  0  0  0  0  0  0  0  0
    5.2520    1.5210   -0.0186 C   0  0  0  0  0  0  0  0  0  0  0  0
    6.5206    0.9299    0.0167 C   0  0  0  0  0  0  0  0  0  0  0  0
    6.2586   -0.4246    0.0719 C   0  0  0  0  0  0  0  0  0  0  0  0
    4.9606   -0.6273    0.0700 O   0  0  0  0  0  0  0  0  0  0  0  0
    2.0689   -0.5184    0.0421 C   0  0  0  0  0  0  0  0  0  0  0  0
    2.3197   -1.8257    0.0995 N   0  0  0  0  0  0  0  0  0  0  0  0
    1.1357   -2.4641    0.1170 C   0  0  0  0  0  0  0  0  0  0  0  0
    0.1125   -1.5957    0.0720 N   0  0  0  0  0  0  0  0  0  0  0  0
   -1.2529   -1.9498    0.0760 C   0  0  0  0  0  0  0  0  0  0  0  0
   -1.5661   -3.1856    0.1259 O   0  0  0  0  0  0  0  0  0  0  0  0
   -2.3021   -0.9788    0.0264 N   0  0  0  0  0  0  0  0  0  0  0  0
   -3.6620   -1.4889    0.0371 C   0  0  0  0  0  0  0  0  0  0  0  0
   -4.6555   -0.4422   -0.0153 C   0  0  0  0  0  0  0  0  0  0  0  0
   -5.3024    0.2104   -1.0299 C   0  0  0  0  0  0  0  0  0  0  0  0
   -6.1986    1.1620   -0.7693 C   0  0  0  0  0  0  0  0  0  0  0  0
   -6.4772    1.4933    0.5494 C   0  0  0  0  0  0  0  0  0  0  0  0
   -5.3654    0.3470    1.4307 S   0  0  0  0  0  0  0  0  0  0  0  0
    0.6851   -0.3793    0.0251 C   0  0  0  0  0  0  0  0  0  0  0  0
    0.1443    0.8466   -0.0312 N   0  0  0  0  0  0  0  0  0  0  0  0
   -0.7240    3.3455   -0.1441 H   0  0  0  0  0  0  0  0  0  0  0  0
    0.8895    4.1063   -0.1634 H   0  0  0  0  0  0  0  0  0  0  0  0
    5.0393    2.5992   -0.0659 H   0  0  0  0  0  0  0  0  0  0  0  0
    7.5004    1.4296    0.0034 H   0  0  0  0  0  0  0  0  0  0  0  0
    7.0222   -1.2154    0.1115 H   0  0  0  0  0  0  0  0  0  0  0  0
    1.0206   -3.5571    0.1624 H   0  0  0  0  0  0  0  0  0  0  0  0
   -2.1034    0.0310   -0.0148 H   0  0  0  0  0  0  0  0  0  0  0  0
   -3.7974   -2.1453   -0.8351 H   0  0  0  0  0  0  0  0  0  0  0  0
   -3.8036   -2.0312    0.9836 H   0  0  0  0  0  0  0  0  0  0  0  0
   -5.0798   -0.0541   -2.0741 H   0  0  0  0  0  0  0  0  0  0  0  0
   -6.7128    1.6802   -1.5921 H   0  0  0  0  0  0  0  0  0  0  0  0
   -7.1761    2.2411    0.9522 H   0  0  0  0  0  0  0  0  0  0  0  0
  1  2  1  0
  2  3  2  0
  3  4  1  0
  4  5  1  0
  5  6  2  0
  6  7  1  0
  7  8  2  0
  8  9  1  0
  4 10  2  0
 10 11  1  0
 11 12  2  0
 12 13  1  0
 13 14  1  0
 14 15  2  0
 14 16  1  0
 16 17  1  0
 17 18  1  0
 18 19  2  0
 19 20  1  0
 20 21  2  0
 21 22  1  0
 13 23  1  0
 23 24  2  0
 24  2  1  0
  9  5  1  0
 23 10  1  0
 22 18  1  0
  1 25  1  0
  1 26  1  0
  6 27  1  0
  7 28  1  0
  8 29  1  0
 12 30  1  0
 16 31  1  0
 17 32  1  0
 17 33  1  0
 19 34  1  0
 20 35  1  0
 21 36  1  0
M  END
>  <Original_Name>  (12) 
CHEMBL409915

>  <ROSHAMBO_ComboTanimoto>  (12) 
1.159

>  <ROSHAMBO_ShapeTanimoto>  (12) 
0.795

>  <ROSHAMBO_ColorTanimoto>  (12) 
0.364

>  <ROSHAMBO_FitTverskyCombo>  (12) 
1.483

>  <ROSHAMBO_FitTversky>  (12) 
0.912

>  <ROSHAMBO_FitColorTversky>  (12) 
0.571

>  <ROSHAMBO_RefTverskyCombo>  (12) 
1.361

>  <ROSHAMBO_RefTversky>  (12) 
0.861

>  <ROSHAMBO_RefColorTversky>  (12) 
0.501

>  <ROSHAMBO_Overlap>  (12) 
1056.154

$$$$
CHEMBL259832_0_0
     RDKit          3D

 36 39  0  0  0  0  0  0  0  0999 V2000
    0.0536    3.1860    0.0855 N   0  0  0  0  0  0  0  0  0  0  0  0
    0.7162    1.9176    0.0879 C   0  0  0  0  0  0  0  0  0  0  0  0
    2.0550    1.8415    0.1411 N   0  0  0  0  0  0  0  0  0  0  0  0
    2.6840    0.6306    0.1432 C   0  0  0  0  0  0  0  0  0  0  0  0
    4.1396    0.5536    0.2012 C   0  0  0  0  0  0  0  0  0  0  0  0
    4.8544   -0.6196    0.2075 C   0  0  0  0  0  0  0  0  0  0  0  0
    6.2093   -0.2821    0.2695 C   0  0  0  0  0  0  0  0  0  0  0  0
    6.2346    1.0922    0.2973 C   0  0  0  0  0  0  0  0  0  0  0  0
    5.0137    1.5073    0.2555 O   0  0  0  0  0  0  0  0  0  0  0  0
    1.8744   -0.4779    0.0886 C   0  0  0  0  0  0  0  0  0  0  0  0
    2.1534   -1.7859    0.0745 N   0  0  0  0  0  0  0  0  0  0  0  0
    1.0017   -2.4716    0.0141 C   0  0  0  0  0  0  0  0  0  0  0  0
   -0.0446   -1.6309   -0.0123 N   0  0  0  0  0  0  0  0  0  0  0  0
   -1.4133   -2.0089   -0.0756 C   0  0  0  0  0  0  0  0  0  0  0  0
   -1.7178   -3.2484   -0.1122 O   0  0  0  0  0  0  0  0  0  0  0  0
   -2.4601   -1.0485   -0.0997 N   0  0  0  0  0  0  0  0  0  0  0  0
   -3.8322   -1.5402   -0.1654 C   0  0  0  0  0  0  0  0  0  0  0  0
   -4.8069   -0.4258   -0.1836 C   0  0  0  0  0  0  0  0  0  0  0  0
   -5.3740    0.1476    0.9382 C   0  0  0  0  0  0  0  0  0  0  0  0
   -6.2325    1.1563    0.5106 C   0  0  0  0  0  0  0  0  0  0  0  0
   -6.1274    1.1282   -0.8792 C   0  0  0  0  0  0  0  0  0  0  0  0
   -5.2857    0.1891   -1.2125 O   0  0  0  0  0  0  0  0  0  0  0  0
    0.4815   -0.4010    0.0331 C   0  0  0  0  0  0  0  0  0  0  0  0
   -0.0651    0.8199    0.0346 N   0  0  0  0  0  0  0  0  0  0  0  0
   -0.9746    3.2299    0.0444 H   0  0  0  0  0  0  0  0  0  0  0  0
    0.6050    4.0551    0.1250 H   0  0  0  0  0  0  0  0  0  0  0  0
    4.4374   -1.6368    0.1707 H   0  0  0  0  0  0  0  0  0  0  0  0
    7.0692   -0.9676    0.2912 H   0  0  0  0  0  0  0  0  0  0  0  0
    7.1337    1.7240    0.3463 H   0  0  0  0  0  0  0  0  0  0  0  0
    0.9254   -3.5687   -0.0104 H   0  0  0  0  0  0  0  0  0  0  0  0
   -2.2571   -0.0391   -0.0718 H   0  0  0  0  0  0  0  0  0  0  0  0
   -3.9546   -2.1373   -1.0811 H   0  0  0  0  0  0  0  0  0  0  0  0
   -4.0232   -2.1516    0.7289 H   0  0  0  0  0  0  0  0  0  0  0  0
   -5.1816   -0.1412    1.9820 H   0  0  0  0  0  0  0  0  0  0  0  0
   -6.8522    1.8231    1.1281 H   0  0  0  0  0  0  0  0  0  0  0  0
   -6.6640    1.7873   -1.5775 H   0  0  0  0  0  0  0  0  0  0  0  0
  1  2  1  0
  2  3  2  0
  3  4  1  0
  4  5  1  0
  5  6  2  0
  6  7  1  0
  7  8  2  0
  8  9  1  0
  4 10  2  0
 10 11  1  0
 11 12  2  0
 12 13  1  0
 13 14  1  0
 14 15  2  0
 14 16  1  0
 16 17  1  0
 17 18  1  0
 18 19  2  0
 19 20  1  0
 20 21  2  0
 21 22  1  0
 13 23  1  0
 23 24  2  0
 24  2  1  0
  9  5  1  0
 23 10  1  0
 22 18  1  0
  1 25  1  0
  1 26  1  0
  6 27  1  0
  7 28  1  0
  8 29  1  0
 12 30  1  0
 16 31  1  0
 17 32  1  0
 17 33  1  0
 19 34  1  0
 20 35  1  0
 21 36  1  0
M  END
>  <Original_Name>  (13) 
CHEMBL259832

>  <ROSHAMBO_ComboTanimoto>  (13) 
1.145

>  <ROSHAMBO_ShapeTanimoto>  (13) 
0.786

>  <ROSHAMBO_ColorTanimoto>  (13) 
0.359

>  <ROSHAMBO_FitTverskyCombo>  (13) 
1.461

>  <ROSHAMBO_FitTversky>  (13) 
0.895

>  <ROSHAMBO_FitColorTversky>  (13) 
0.566

>  <ROSHAMBO_RefTverskyCombo>  (13) 
1.362

>  <ROSHAMBO_RefTversky>  (13) 
0.866

>  <ROSHAMBO_RefColorTversky>  (13) 
0.496

>  <ROSHAMBO_Overlap>  (13) 
1063.833

$$$$
CHEMBL196258_0_92
     RDKit          3D

 39 41  0  0  0  0  0  0  0  0999 V2000
   -5.4424   -0.2472    1.5453 C   0  0  0  0  0  0  0  0  0  0  0  0
   -5.4234   -0.7924    0.1538 C   0  0  0  0  0  0  0  0  0  0  0  0
   -4.1917   -1.6661   -0.1099 C   0  0  0  0  0  0  0  0  0  0  0  0
   -2.9250   -0.8747    0.0797 C   0  0  0  0  0  0  0  0  0  0  0  0
   -1.7304   -1.7345   -0.1795 C   0  0  0  0  0  0  0  0  0  0  0  0
   -0.4833   -0.9408    0.0112 C   0  0  0  0  0  0  0  0  0  0  0  0
   -0.5522    0.3551    0.3659 N   0  0  0  0  0  0  0  0  0  0  0  0
    0.5253    1.1371    0.5569 C   0  0  0  0  0  0  0  0  0  0  0  0
    0.4012    2.5037    0.9321 N   0  0  0  0  0  0  0  0  0  0  0  0
    1.7601    0.5476    0.3707 C   0  0  0  0  0  0  0  0  0  0  0  0
    3.0269    1.0090    0.4705 N   0  0  0  0  0  0  0  0  0  0  0  0
    3.8984    0.0003    0.1774 C   0  0  0  0  0  0  0  0  0  0  0  0
    5.3197    0.1716    0.1949 N   0  0  0  0  0  0  0  0  0  0  0  0
    6.2318   -0.7546    0.4913 N   0  0  0  0  0  0  0  0  0  0  0  0
    7.4621   -0.2651    0.4125 C   0  0  0  0  0  0  0  0  0  0  0  0
    7.3260    1.0575    0.0422 C   0  0  0  0  0  0  0  0  0  0  0  0
    6.0034    1.2704   -0.0765 N   0  0  0  0  0  0  0  0  0  0  0  0
    3.1869   -1.1049   -0.1092 N   0  0  0  0  0  0  0  0  0  0  0  0
    3.7462   -2.3979   -0.4733 C   0  0  0  0  0  0  0  0  0  0  0  0
    1.8848   -0.7872    0.0042 C   0  0  0  0  0  0  0  0  0  0  0  0
    0.7394   -1.4732   -0.1592 N   0  0  0  0  0  0  0  0  0  0  0  0
   -5.4134   -1.0784    2.2652 H   0  0  0  0  0  0  0  0  0  0  0  0
   -4.5663    0.4004    1.6974 H   0  0  0  0  0  0  0  0  0  0  0  0
   -6.3615    0.3377    1.6974 H   0  0  0  0  0  0  0  0  0  0  0  0
   -6.3277   -1.3993   -0.0011 H   0  0  0  0  0  0  0  0  0  0  0  0
   -5.3881    0.0591   -0.5417 H   0  0  0  0  0  0  0  0  0  0  0  0
   -4.1949   -2.5148    0.5899 H   0  0  0  0  0  0  0  0  0  0  0  0
   -4.2305   -2.0263   -1.1485 H   0  0  0  0  0  0  0  0  0  0  0  0
   -2.9196   -0.0261   -0.6202 H   0  0  0  0  0  0  0  0  0  0  0  0
   -2.8840   -0.5096    1.1165 H   0  0  0  0  0  0  0  0  0  0  0  0
   -1.7332   -2.5833    0.5203 H   0  0  0  0  0  0  0  0  0  0  0  0
   -1.7689   -2.1057   -1.2142 H   0  0  0  0  0  0  0  0  0  0  0  0
    1.2447    3.0782    1.0713 H   0  0  0  0  0  0  0  0  0  0  0  0
   -0.5322    2.9187    1.0645 H   0  0  0  0  0  0  0  0  0  0  0  0
    8.4015   -0.8045    0.6037 H   0  0  0  0  0  0  0  0  0  0  0  0
    8.1328    1.7870   -0.1219 H   0  0  0  0  0  0  0  0  0  0  0  0
    3.9902   -2.9619    0.4391 H   0  0  0  0  0  0  0  0  0  0  0  0
    3.0113   -2.9612   -1.0671 H   0  0  0  0  0  0  0  0  0  0  0  0
    4.6600   -2.2481   -1.0671 H   0  0  0  0  0  0  0  0  0  0  0  0
  1  2  1  0
  2  3  1  0
  3  4  1  0
  4  5  1  0
  5  6  1  0
  6  7  2  0
  7  8  1  0
  8  9  1  0
  8 10  2  0
 10 11  1  0
 11 12  2  0
 12 13  1  0
 13 14  1  0
 14 15  2  0
 15 16  1  0
 16 17  2  0
 12 18  1  0
 18 19  1  0
 18 20  1  0
 20 21  2  0
 21  6  1  0
 20 10  1  0
 17 13  1  0
  1 22  1  0
  1 23  1  0
  1 24  1  0
  2 25  1  0
  2 26  1  0
  3 27  1  0
  3 28  1  0
  4 29  1  0
  4 30  1  0
  5 31  1  0
  5 32  1  0
  9 33  1  0
  9 34  1  0
 15 35  1  0
 16 36  1  0
 19 37  1  0
 19 38  1  0
 19 39  1  0
M  END
>  <Original_Name>  (14) 
CHEMBL196258

>  <ROSHAMBO_ComboTanimoto>  (14) 
1.134

>  <ROSHAMBO_ShapeTanimoto>  (14) 
0.747

>  <ROSHAMBO_ColorTanimoto>  (14) 
0.387

>  <ROSHAMBO_FitTverskyCombo>  (14) 
1.451

>  <ROSHAMBO_FitTversky>  (14) 
0.943

>  <ROSHAMBO_FitColorTversky>  (14) 
0.508

>  <ROSHAMBO_RefTverskyCombo>  (14) 
1.402

>  <ROSHAMBO_RefTversky>  (14) 
0.782

>  <ROSHAMBO_RefColorTversky>  (14) 
0.62

>  <ROSHAMBO_Overlap>  (14) 
953.65

$$$$
CHEMBL113542_0
     RDKit          3D

 43 46  0  0  0  0  0  0  0  0999 V2000
   -6.3500    0.9472    0.2988 C   0  0  0  0  0  0  0  0  0  0  0  0
   -5.6950   -0.4051    0.0926 C   0  0  0  0  0  0  0  0  0  0  0  0
   -6.1298   -1.0445   -1.1995 C   0  0  0  0  0  0  0  0  0  0  0  0
   -5.4142   -2.3407   -1.3688 C   0  0  0  0  0  0  0  0  0  0  0  0
   -4.4339   -2.6499   -0.2476 C   0  0  0  0  0  0  0  0  0  0  0  0
   -3.5191   -1.4869   -0.0707 N   0  0  0  0  0  0  0  0  0  0  0  0
   -2.1586   -1.7470   -0.1063 C   0  0  0  0  0  0  0  0  0  0  0  0
   -1.8894   -3.0248   -0.2968 O   0  0  0  0  0  0  0  0  0  0  0  0
   -1.0178   -0.8702    0.0277 C   0  0  0  0  0  0  0  0  0  0  0  0
    0.2829   -1.3953   -0.0458 C   0  0  0  0  0  0  0  0  0  0  0  0
    1.3786   -0.6186    0.0728 N   0  0  0  0  0  0  0  0  0  0  0  0
    2.6817   -0.9396    0.0295 N   0  0  0  0  0  0  0  0  0  0  0  0
    3.4145    0.1694    0.1962 C   0  0  0  0  0  0  0  0  0  0  0  0
    4.8871    0.2601    0.2144 C   0  0  0  0  0  0  0  0  0  0  0  0
    5.5991    1.4272    0.3896 C   0  0  0  0  0  0  0  0  0  0  0  0
    6.9464    1.1083    0.3468 C   0  0  0  0  0  0  0  0  0  0  0  0
    6.9909   -0.2546    0.1451 C   0  0  0  0  0  0  0  0  0  0  0  0
    8.6297   -1.2588    0.0018 Br  0  0  0  0  0  0  0  0  0  0  0  0
    5.7761   -0.6858    0.0773 O   0  0  0  0  0  0  0  0  0  0  0  0
    2.5440    1.1740    0.3421 N   0  0  0  0  0  0  0  0  0  0  0  0
    1.2889    0.7011    0.2680 C   0  0  0  0  0  0  0  0  0  0  0  0
    0.0405    1.2851    0.3504 C   0  0  0  0  0  0  0  0  0  0  0  0
   -0.0361    2.6651    0.5545 N   0  0  0  0  0  0  0  0  0  0  0  0
   -1.0922    0.4690    0.2258 C   0  0  0  0  0  0  0  0  0  0  0  0
   -4.1585   -0.2115    0.1195 C   0  0  0  0  0  0  0  0  0  0  0  0
   -6.4469    1.1472    1.3761 H   0  0  0  0  0  0  0  0  0  0  0  0
   -5.7308    1.7291   -0.1651 H   0  0  0  0  0  0  0  0  0  0  0  0
   -7.3474    0.9460   -0.1651 H   0  0  0  0  0  0  0  0  0  0  0  0
   -6.0060   -1.0838    0.9004 H   0  0  0  0  0  0  0  0  0  0  0  0
   -7.2148   -1.2235   -1.1748 H   0  0  0  0  0  0  0  0  0  0  0  0
   -5.8911   -0.3774   -2.0411 H   0  0  0  0  0  0  0  0  0  0  0  0
   -6.1614   -3.1470   -1.4089 H   0  0  0  0  0  0  0  0  0  0  0  0
   -4.8277   -2.2649   -2.2963 H   0  0  0  0  0  0  0  0  0  0  0  0
   -4.9863   -2.8304    0.6863 H   0  0  0  0  0  0  0  0  0  0  0  0
   -3.8504   -3.5475   -0.5003 H   0  0  0  0  0  0  0  0  0  0  0  0
    0.4119   -2.4760   -0.2054 H   0  0  0  0  0  0  0  0  0  0  0  0
    5.1740    2.4310    0.5368 H   0  0  0  0  0  0  0  0  0  0  0  0
    7.7988    1.7958    0.4514 H   0  0  0  0  0  0  0  0  0  0  0  0
   -0.9550    3.1258    0.6197 H   0  0  0  0  0  0  0  0  0  0  0  0
    0.8263    3.2218    0.6397 H   0  0  0  0  0  0  0  0  0  0  0  0
   -2.0860    0.9360    0.2917 H   0  0  0  0  0  0  0  0  0  0  0  0
   -3.8575    0.2103    1.0898 H   0  0  0  0  0  0  0  0  0  0  0  0
   -3.8579    0.4770   -0.6839 H   0  0  0  0  0  0  0  0  0  0  0  0
  1  2  1  0
  2  3  1  0
  3  4  1  0
  4  5  1  0
  5  6  1  0
  6  7  1  0
  7  8  2  0
  7  9  1  0
  9 10  2  0
 10 11  1  0
 11 12  1  0
 12 13  2  0
 13 14  1  0
 14 15  2  0
 15 16  1  0
 16 17  2  0
 17 18  1  0
 17 19  1  0
 13 20  1  0
 20 21  2  0
 21 22  1  0
 22 23  1  0
 22 24  2  0
  6 25  1  0
 25  2  1  0
 24  9  1  0
 21 11  1  0
 19 14  1  0
  1 26  1  0
  1 27  1  0
  1 28  1  0
  2 29  1  0
  3 30  1  0
  3 31  1  0
  4 32  1  0
  4 33  1  0
  5 34  1  0
  5 35  1  0
 10 36  1  0
 15 37  1  0
 16 38  1  0
 23 39  1  0
 23 40  1  0
 24 41  1  0
 25 42  1  0
 25 43  1  0
M  END
>  <Original_Name>  (15) 
CHEMBL113542

>  <ROSHAMBO_ComboTanimoto>  (15) 
1.121

>  <ROSHAMBO_ShapeTanimoto>  (15) 
0.735

>  <ROSHAMBO_ColorTanimoto>  (15) 
0.385

>  <ROSHAMBO_FitTverskyCombo>  (15) 
1.475

>  <ROSHAMBO_FitTversky>  (15) 
0.86

>  <ROSHAMBO_FitColorTversky>  (15) 
0.615

>  <ROSHAMBO_RefTverskyCombo>  (15) 
1.343

>  <ROSHAMBO_RefTversky>  (15) 
0.836

>  <ROSHAMBO_RefColorTversky>  (15) 
0.508

>  <ROSHAMBO_Overlap>  (15) 
1026.642

$$$$
CHEMBL110047_0_61
     RDKit          3D

 44 47  0  0  0  0  0  0  0  0999 V2000
   -6.9975    1.8561    0.8908 C   0  0  0  0  0  0  0  0  0  0  0  0
   -6.9592    0.5551    0.4595 O   0  0  0  0  0  0  0  0  0  0  0  0
   -5.6956    0.0201    0.4497 C   0  0  0  0  0  0  0  0  0  0  0  0
   -4.7377    0.7610   -0.4327 C   0  0  2  0  0  0  0  0  0  0  0  0
   -5.1312    0.4807   -1.8935 C   0  0  0  0  0  0  0  0  0  0  0  0
   -4.5424   -0.8962   -2.1603 C   0  0  0  0  0  0  0  0  0  0  0  0
   -3.5047   -1.0934   -1.0883 C   0  0  0  0  0  0  0  0  0  0  0  0
   -3.4313    0.1598   -0.4115 N   0  0  0  0  0  0  0  0  0  0  0  0
   -2.2904    0.7121    0.1825 C   0  0  0  0  0  0  0  0  0  0  0  0
   -2.4520    1.8757    0.7409 O   0  0  0  0  0  0  0  0  0  0  0  0
   -0.9709    0.1244    0.2381 C   0  0  0  0  0  0  0  0  0  0  0  0
    0.1337    0.9045   -0.0064 C   0  0  0  0  0  0  0  0  0  0  0  0
    1.3814    0.3806    0.0589 N   0  0  0  0  0  0  0  0  0  0  0  0
    2.5832    0.8800   -0.1146 N   0  0  0  0  0  0  0  0  0  0  0  0
    3.5290   -0.0383    0.0670 C   0  0  0  0  0  0  0  0  0  0  0  0
    2.8925   -1.1736    0.3699 N   0  0  0  0  0  0  0  0  0  0  0  0
    1.5536   -0.9200    0.3668 C   0  0  0  0  0  0  0  0  0  0  0  0
    0.4826   -1.7635    0.6245 C   0  0  0  0  0  0  0  0  0  0  0  0
    0.6479   -3.1257    0.9540 N   0  0  0  0  0  0  0  0  0  0  0  0
   -0.7943   -1.1897    0.5487 C   0  0  0  0  0  0  0  0  0  0  0  0
    4.9598    0.2530   -0.0535 C   0  0  0  0  0  0  0  0  0  0  0  0
    5.9606   -0.5441   -0.5541 C   0  0  0  0  0  0  0  0  0  0  0  0
    7.1434    0.1546   -0.4668 C   0  0  0  0  0  0  0  0  0  0  0  0
    6.8240    1.3656    0.0891 C   0  0  0  0  0  0  0  0  0  0  0  0
    8.0952    2.7624    0.4495 Br  0  0  0  0  0  0  0  0  0  0  0  0
    5.5501    1.3785    0.3122 O   0  0  0  0  0  0  0  0  0  0  0  0
   -6.9982    1.8780    1.9905 H   0  0  0  0  0  0  0  0  0  0  0  0
   -6.1148    2.3935    0.5138 H   0  0  0  0  0  0  0  0  0  0  0  0
   -7.9103    2.3406    0.5138 H   0  0  0  0  0  0  0  0  0  0  0  0
   -5.3039    0.0342    1.4775 H   0  0  0  0  0  0  0  0  0  0  0  0
   -5.7805   -1.0006    0.0485 H   0  0  0  0  0  0  0  0  0  0  0  0
   -4.7504    1.8098   -0.1013 H   0  0  0  0  0  0  0  0  0  0  0  0
   -6.2248    0.4706   -2.0114 H   0  0  0  0  0  0  0  0  0  0  0  0
   -4.7634    1.2472   -2.5915 H   0  0  0  0  0  0  0  0  0  0  0  0
   -5.3216   -1.6695   -2.0904 H   0  0  0  0  0  0  0  0  0  0  0  0
   -4.1117   -0.9717   -3.1696 H   0  0  0  0  0  0  0  0  0  0  0  0
   -3.8117   -1.8901   -0.3947 H   0  0  0  0  0  0  0  0  0  0  0  0
   -2.5326   -1.3961   -1.5046 H   0  0  0  0  0  0  0  0  0  0  0  0
    0.0032    1.9673   -0.2583 H   0  0  0  0  0  0  0  0  0  0  0  0
   -0.1768   -3.7149    1.1375 H   0  0  0  0  0  0  0  0  0  0  0  0
    1.5932   -3.5307    1.0110 H   0  0  0  0  0  0  0  0  0  0  0  0
   -1.6762   -1.8172    0.7452 H   0  0  0  0  0  0  0  0  0  0  0  0
    5.8383   -1.5614   -0.9542 H   0  0  0  0  0  0  0  0  0  0  0  0
    8.1406   -0.1887   -0.7794 H   0  0  0  0  0  0  0  0  0  0  0  0
  1  2  1  0
  2  3  1  0
  3  4  1  0
  4  5  1  0
  5  6  1  0
  6  7  1  0
  7  8  1  0
  8  9  1  0
  9 10  2  0
  9 11  1  0
 11 12  2  0
 12 13  1  0
 13 14  1  0
 14 15  2  0
 15 16  1  0
 16 17  2  0
 17 18  1  0
 18 19  1  0
 18 20  2  0
 15 21  1  0
 21 22  2  0
 22 23  1  0
 23 24  2  0
 24 25  1  0
 24 26  1  0
  8  4  1  0
 20 11  1  0
 26 21  1  0
 17 13  1  0
  1 27  1  0
  1 28  1  0
  1 29  1  0
  3 30  1  0
  3 31  1  0
  4 32  1  1
  5 33  1  0
  5 34  1  0
  6 35  1  0
  6 36  1  0
  7 37  1  0
  7 38  1  0
 12 39  1  0
 19 40  1  0
 19 41  1  0
 20 42  1  0
 22 43  1  0
 23 44  1  0
M  END
>  <Original_Name>  (16) 
CHEMBL110047

>  <ROSHAMBO_ComboTanimoto>  (16) 
1.117

>  <ROSHAMBO_ShapeTanimoto>  (16) 
0.748

>  <ROSHAMBO_ColorTanimoto>  (16) 
0.369

>  <ROSHAMBO_FitTverskyCombo>  (16) 
1.427

>  <ROSHAMBO_FitTversky>  (16) 
0.851

>  <ROSHAMBO_FitColorTversky>  (16) 
0.576

>  <ROSHAMBO_RefTverskyCombo>  (16) 
1.367

>  <ROSHAMBO_RefTversky>  (16) 
0.86

>  <ROSHAMBO_RefColorTversky>  (16) 
0.507

>  <ROSHAMBO_Overlap>  (16) 
1059.197

$$$$
CHEMBL113967_0_97
     RDKit          3D

 43 46  0  0  0  0  0  0  0  0999 V2000
   -4.8099   -2.1412   -1.5420 C   0  0  0  0  0  0  0  0  0  0  0  0
   -4.3990   -1.5031   -0.2202 C   0  0  0  0  0  0  0  0  0  0  0  0
   -5.4371   -0.5183    0.1956 C   0  0  0  0  0  0  0  0  0  0  0  0
   -5.4914    0.7523   -0.5533 C   0  0  0  0  0  0  0  0  0  0  0  0
   -4.3427    1.1604   -1.3666 C   0  0  0  0  0  0  0  0  0  0  0  0
   -3.1534    0.2533   -1.3719 C   0  0  0  0  0  0  0  0  0  0  0  0
   -3.1694   -0.7559   -0.3649 N   0  0  0  0  0  0  0  0  0  0  0  0
   -2.0807   -1.0682    0.4855 C   0  0  0  0  0  0  0  0  0  0  0  0
   -2.2007   -1.9867    1.3512 O   0  0  0  0  0  0  0  0  0  0  0  0
   -0.8033   -0.4019    0.4431 C   0  0  0  0  0  0  0  0  0  0  0  0
    0.3444   -1.1002    0.1699 C   0  0  0  0  0  0  0  0  0  0  0  0
    1.5738   -0.4335    0.1393 C   0  0  0  0  0  0  0  0  0  0  0  0
    2.8296   -0.8580   -0.0949 N   0  0  0  0  0  0  0  0  0  0  0  0
    3.6823    0.2057   -0.0035 C   0  0  0  0  0  0  0  0  0  0  0  0
    5.1217    0.2062   -0.1810 C   0  0  0  0  0  0  0  0  0  0  0  0
    5.8100    0.7615   -1.2347 C   0  0  0  0  0  0  0  0  0  0  0  0
    7.1754    0.5375   -1.0120 C   0  0  0  0  0  0  0  0  0  0  0  0
    7.2171   -0.1496    0.1821 C   0  0  0  0  0  0  0  0  0  0  0  0
    8.8062   -0.7617    1.0548 Br  0  0  0  0  0  0  0  0  0  0  0  0
    5.9972   -0.3215    0.6322 O   0  0  0  0  0  0  0  0  0  0  0  0
    2.8763    1.2428    0.2883 N   0  0  0  0  0  0  0  0  0  0  0  0
    1.6164    0.8978    0.3804 N   0  0  0  0  0  0  0  0  0  0  0  0
    0.4938    1.6131    0.6533 C   0  0  0  0  0  0  0  0  0  0  0  0
    0.5601    2.9997    0.9024 N   0  0  0  0  0  0  0  0  0  0  0  0
   -0.7110    0.9463    0.6810 C   0  0  0  0  0  0  0  0  0  0  0  0
   -5.3958   -3.0507   -1.3436 H   0  0  0  0  0  0  0  0  0  0  0  0
   -5.4203   -1.4302   -2.1182 H   0  0  0  0  0  0  0  0  0  0  0  0
   -3.9102   -2.4029   -2.1182 H   0  0  0  0  0  0  0  0  0  0  0  0
   -4.2752   -2.3128    0.5141 H   0  0  0  0  0  0  0  0  0  0  0  0
   -6.4177   -1.0062    0.0934 H   0  0  0  0  0  0  0  0  0  0  0  0
   -5.1667   -0.2337    1.2231 H   0  0  0  0  0  0  0  0  0  0  0  0
   -6.3560    0.6879   -1.2304 H   0  0  0  0  0  0  0  0  0  0  0  0
   -5.5327    1.5163    0.2370 H   0  0  0  0  0  0  0  0  0  0  0  0
   -4.6903    1.2567   -2.4058 H   0  0  0  0  0  0  0  0  0  0  0  0
   -3.9861    2.0936   -0.9063 H   0  0  0  0  0  0  0  0  0  0  0  0
   -3.1046   -0.2421   -2.3528 H   0  0  0  0  0  0  0  0  0  0  0  0
   -2.2786    0.8867   -1.1630 H   0  0  0  0  0  0  0  0  0  0  0  0
    0.2986   -2.1819   -0.0248 H   0  0  0  0  0  0  0  0  0  0  0  0
    5.3691    1.2858   -2.0953 H   0  0  0  0  0  0  0  0  0  0  0  0
    8.0214    0.8411   -1.6461 H   0  0  0  0  0  0  0  0  0  0  0  0
   -0.3000    3.5278    1.1079 H   0  0  0  0  0  0  0  0  0  0  0  0
    1.4687    3.4842    0.8789 H   0  0  0  0  0  0  0  0  0  0  0  0
   -1.6282    1.5124    0.9007 H   0  0  0  0  0  0  0  0  0  0  0  0
  1  2  1  0
  2  3  1  0
  3  4  1  0
  4  5  1  0
  5  6  1  0
  6  7  1  0
  7  8  1  0
  8  9  2  0
  8 10  1  0
 10 11  2  0
 11 12  1  0
 12 13  2  0
 13 14  1  0
 14 15  1  0
 15 16  2  0
 16 17  1  0
 17 18  2  0
 18 19  1  0
 18 20  1  0
 14 21  2  0
 21 22  1  0
 22 23  1  0
 23 24  1  0
 23 25  2  0
  7  2  1  0
 25 10  1  0
 22 12  1  0
 20 15  1  0
  1 26  1  0
  1 27  1  0
  1 28  1  0
  2 29  1  0
  3 30  1  0
  3 31  1  0
  4 32  1  0
  4 33  1  0
  5 34  1  0
  5 35  1  0
  6 36  1  0
  6 37  1  0
 11 38  1  0
 16 39  1  0
 17 40  1  0
 24 41  1  0
 24 42  1  0
 25 43  1  0
M  END
>  <Original_Name>  (17) 
CHEMBL113967

>  <ROSHAMBO_ComboTanimoto>  (17) 
1.108

>  <ROSHAMBO_ShapeTanimoto>  (17) 
0.73

>  <ROSHAMBO_ColorTanimoto>  (17) 
0.378

>  <ROSHAMBO_FitTverskyCombo>  (17) 
1.417

>  <ROSHAMBO_FitTversky>  (17) 
0.855

>  <ROSHAMBO_FitColorTversky>  (17) 
0.563

>  <ROSHAMBO_RefTverskyCombo>  (17) 
1.368

>  <ROSHAMBO_RefTversky>  (17) 
0.833

>  <ROSHAMBO_RefColorTversky>  (17) 
0.535

>  <ROSHAMBO_Overlap>  (17) 
1024.029

$$$$
CHEMBL113967_0_42
     RDKit          3D

 43 46  0  0  0  0  0  0  0  0999 V2000
   -4.8621   -2.9150   -0.4281 C   0  0  0  0  0  0  0  0  0  0  0  0
   -4.9545   -1.4330   -0.6201 C   0  0  0  0  0  0  0  0  0  0  0  0
   -5.9124   -0.7804    0.3560 C   0  0  0  0  0  0  0  0  0  0  0  0
   -5.6794    0.6982    0.3863 C   0  0  0  0  0  0  0  0  0  0  0  0
   -4.9976    1.2609   -0.8228 C   0  0  0  0  0  0  0  0  0  0  0  0
   -3.6686    0.5857   -1.1004 C   0  0  0  0  0  0  0  0  0  0  0  0
   -3.6978   -0.7330   -0.4979 N   0  0  0  0  0  0  0  0  0  0  0  0
   -2.6068   -1.3281    0.1740 C   0  0  0  0  0  0  0  0  0  0  0  0
   -2.6754   -2.4872    0.6872 O   0  0  0  0  0  0  0  0  0  0  0  0
   -1.3134   -0.6684    0.3373 C   0  0  0  0  0  0  0  0  0  0  0  0
   -0.1541   -1.2062   -0.1774 C   0  0  0  0  0  0  0  0  0  0  0  0
    1.0726   -0.6074   -0.0343 C   0  0  0  0  0  0  0  0  0  0  0  0
    2.3495   -0.8787   -0.4096 N   0  0  0  0  0  0  0  0  0  0  0  0
    3.1626    0.0804    0.0181 C   0  0  0  0  0  0  0  0  0  0  0  0
    4.6061    0.1734   -0.1683 C   0  0  0  0  0  0  0  0  0  0  0  0
    5.5579   -0.7050    0.3699 C   0  0  0  0  0  0  0  0  0  0  0  0
    6.7888   -0.2731   -0.0369 C   0  0  0  0  0  0  0  0  0  0  0  0
    6.5850    0.8429   -0.8046 C   0  0  0  0  0  0  0  0  0  0  0  0
    7.9513    1.9036   -1.6651 Br  0  0  0  0  0  0  0  0  0  0  0  0
    5.2943    1.0524   -0.8441 O   0  0  0  0  0  0  0  0  0  0  0  0
    2.4172    0.9776    0.6720 N   0  0  0  0  0  0  0  0  0  0  0  0
    1.1409    0.5564    0.6394 N   0  0  0  0  0  0  0  0  0  0  0  0
    0.0309    1.1145    1.1576 C   0  0  0  0  0  0  0  0  0  0  0  0
    0.1657    2.3462    1.8609 N   0  0  0  0  0  0  0  0  0  0  0  0
   -1.2262    0.5237    1.0244 C   0  0  0  0  0  0  0  0  0  0  0  0
   -4.8478   -3.1453    0.6474 H   0  0  0  0  0  0  0  0  0  0  0  0
   -5.7318   -3.4002   -0.8954 H   0  0  0  0  0  0  0  0  0  0  0  0
   -3.9390   -3.2884   -0.8954 H   0  0  0  0  0  0  0  0  0  0  0  0
   -5.3168   -1.3434   -1.6548 H   0  0  0  0  0  0  0  0  0  0  0  0
   -6.9471   -0.9803    0.0405 H   0  0  0  0  0  0  0  0  0  0  0  0
   -5.7437   -1.1945    1.3610 H   0  0  0  0  0  0  0  0  0  0  0  0
   -6.6557    1.1947    0.4884 H   0  0  0  0  0  0  0  0  0  0  0  0
   -5.0019    0.8834    1.2329 H   0  0  0  0  0  0  0  0  0  0  0  0
   -5.6535    1.1230   -1.6950 H   0  0  0  0  0  0  0  0  0  0  0  0
   -4.8005    2.3262   -0.6327 H   0  0  0  0  0  0  0  0  0  0  0  0
   -3.5157    0.4961   -2.1861 H   0  0  0  0  0  0  0  0  0  0  0  0
   -2.8444    1.1792   -0.6780 H   0  0  0  0  0  0  0  0  0  0  0  0
   -0.2143   -2.1571   -0.7272 H   0  0  0  0  0  0  0  0  0  0  0  0
    5.3515   -1.5805    1.0030 H   0  0  0  0  0  0  0  0  0  0  0  0
    7.7579   -0.7335    0.2056 H   0  0  0  0  0  0  0  0  0  0  0  0
   -0.6641    2.7994    2.2695 H   0  0  0  0  0  0  0  0  0  0  0  0
    1.0929    2.7835    1.9607 H   0  0  0  0  0  0  0  0  0  0  0  0
   -2.1217    0.9954    1.4551 H   0  0  0  0  0  0  0  0  0  0  0  0
  1  2  1  0
  2  3  1  0
  3  4  1  0
  4  5  1  0
  5  6  1  0
  6  7  1  0
  7  8  1  0
  8  9  2  0
  8 10  1  0
 10 11  2  0
 11 12  1  0
 12 13  2  0
 13 14  1  0
 14 15  1  0
 15 16  2  0
 16 17  1  0
 17 18  2  0
 18 19  1  0
 18 20  1  0
 14 21  2  0
 21 22  1  0
 22 23  1  0
 23 24  1  0
 23 25  2  0
  7  2  1  0
 25 10  1  0
 22 12  1  0
 20 15  1  0
  1 26  1  0
  1 27  1  0
  1 28  1  0
  2 29  1  0
  3 30  1  0
  3 31  1  0
  4 32  1  0
  4 33  1  0
  5 34  1  0
  5 35  1  0
  6 36  1  0
  6 37  1  0
 11 38  1  0
 16 39  1  0
 17 40  1  0
 24 41  1  0
 24 42  1  0
 25 43  1  0
M  END
>  <Original_Name>  (18) 
CHEMBL113967

>  <ROSHAMBO_ComboTanimoto>  (18) 
1.095

>  <ROSHAMBO_ShapeTanimoto>  (18) 
0.741

>  <ROSHAMBO_ColorTanimoto>  (18) 
0.354

>  <ROSHAMBO_FitTverskyCombo>  (18) 
1.401

>  <ROSHAMBO_FitTversky>  (18) 
0.862

>  <ROSHAMBO_FitColorTversky>  (18) 
0.539

>  <ROSHAMBO_RefTverskyCombo>  (18) 
1.35

>  <ROSHAMBO_RefTversky>  (18) 
0.841

>  <ROSHAMBO_RefColorTversky>  (18) 
0.509

>  <ROSHAMBO_Overlap>  (18) 
1033.697

$$$$
CHEMBL334873_0_10
     RDKit          3D

 37 39  0  0  0  0  0  0  0  0999 V2000
    7.0487   -0.4740   -0.2167 C   0  0  0  0  0  0  0  0  0  0  0  0
    6.0130    0.1442    0.0157 C   0  0  0  0  0  0  0  0  0  0  0  0
    4.8115    0.8575    0.3092 C   0  0  0  0  0  0  0  0  0  0  0  0
    3.5841    0.1602    0.1512 N   0  0  0  0  0  0  0  0  0  0  0  0
    2.4769    0.9907    0.1625 C   0  0  0  0  0  0  0  0  0  0  0  0
    2.5511    2.2212    0.2673 O   0  0  0  0  0  0  0  0  0  0  0  0
    1.2664    0.3739    0.0509 C   0  0  0  0  0  0  0  0  0  0  0  0
    1.1539   -0.9804   -0.0671 C   0  0  0  0  0  0  0  0  0  0  0  0
   -0.1771   -1.2286   -0.1253 N   0  0  0  0  0  0  0  0  0  0  0  0
   -0.8343   -0.0765   -0.0438 C   0  0  0  0  0  0  0  0  0  0  0  0
   -2.2885    0.1395   -0.0512 C   0  0  0  0  0  0  0  0  0  0  0  0
   -3.2119   -0.7664   -0.2043 C   0  0  0  0  0  0  0  0  0  0  0  0
   -4.6877   -0.3803   -0.1839 C   0  0  0  0  0  0  0  0  0  0  0  0
   -5.6070   -1.3260   -0.3154 C   0  0  0  0  0  0  0  0  0  0  0  0
   -7.1459   -0.3968   -0.2160 S   0  0  0  0  0  0  0  0  0  0  0  0
   -6.4212    1.1674   -0.0082 C   0  0  0  0  0  0  0  0  0  0  0  0
   -5.0287    0.9214   -0.0234 C   0  0  0  0  0  0  0  0  0  0  0  0
    0.0298    0.9735    0.0700 N   0  0  0  0  0  0  0  0  0  0  0  0
   -0.2786    2.3433    0.1940 C   0  0  0  0  0  0  0  0  0  0  0  0
    2.2675   -1.7738   -0.0788 N   0  0  0  0  0  0  0  0  0  0  0  0
    2.0869   -3.1949   -0.1977 C   0  0  0  0  0  0  0  0  0  0  0  0
    3.4430   -1.1307    0.0350 C   0  0  0  0  0  0  0  0  0  0  0  0
    4.4836   -1.8920    0.0194 O   0  0  0  0  0  0  0  0  0  0  0  0
    7.9762   -1.0276   -0.4249 H   0  0  0  0  0  0  0  0  0  0  0  0
    4.8711    1.1881    1.3566 H   0  0  0  0  0  0  0  0  0  0  0  0
    4.7745    1.6662   -0.4356 H   0  0  0  0  0  0  0  0  0  0  0  0
   -2.6330    1.1750    0.0871 H   0  0  0  0  0  0  0  0  0  0  0  0
   -2.9253   -1.8184   -0.3494 H   0  0  0  0  0  0  0  0  0  0  0  0
   -5.4651   -2.4084   -0.4513 H   0  0  0  0  0  0  0  0  0  0  0  0
   -6.9318    2.1346    0.1092 H   0  0  0  0  0  0  0  0  0  0  0  0
   -4.2824    1.7221    0.0861 H   0  0  0  0  0  0  0  0  0  0  0  0
   -0.3388    2.6107    1.2593 H   0  0  0  0  0  0  0  0  0  0  0  0
    0.5074    2.9414   -0.2903 H   0  0  0  0  0  0  0  0  0  0  0  0
   -1.2450    2.5469   -0.2903 H   0  0  0  0  0  0  0  0  0  0  0  0
    2.0300   -3.6425    0.8055 H   0  0  0  0  0  0  0  0  0  0  0  0
    1.1552   -3.4016   -0.7448 H   0  0  0  0  0  0  0  0  0  0  0  0
    2.9372   -3.6280   -0.7448 H   0  0  0  0  0  0  0  0  0  0  0  0
  1  2  3  0
  2  3  1  0
  3  4  1  0
  4  5  1  0
  5  6  2  0
  5  7  1  0
  7  8  2  0
  8  9  1  0
  9 10  2  0
 10 11  1  0
 11 12  2  0
 12 13  1  0
 13 14  2  0
 14 15  1  0
 15 16  1  0
 16 17  2  0
 10 18  1  0
 18 19  1  0
  8 20  1  0
 20 21  1  0
 20 22  1  0
 22 23  2  0
 22  4  1  0
 18  7  1  0
 17 13  1  0
  1 24  1  0
  3 25  1  0
  3 26  1  0
 11 27  1  0
 12 28  1  0
 14 29  1  0
 16 30  1  0
 17 31  1  0
 19 32  1  0
 19 33  1  0
 19 34  1  0
 21 35  1  0
 21 36  1  0
 21 37  1  0
M  END
>  <Original_Name>  (19) 
CHEMBL334873

>  <ROSHAMBO_ComboTanimoto>  (19) 
1.084

>  <ROSHAMBO_ShapeTanimoto>  (19) 
0.717

>  <ROSHAMBO_ColorTanimoto>  (19) 
0.368

>  <ROSHAMBO_FitTverskyCombo>  (19) 
1.444

>  <ROSHAMBO_FitTversky>  (19) 
0.879

>  <ROSHAMBO_FitColorTversky>  (19) 
0.565

>  <ROSHAMBO_RefTverskyCombo>  (19) 
1.308

>  <ROSHAMBO_RefTversky>  (19) 
0.795

>  <ROSHAMBO_RefColorTversky>  (19) 
0.514

>  <ROSHAMBO_Overlap>  (19) 
972.53

$$$$
CHEMBL325237_0_26
     RDKit          3D

 38 41  0  0  0  0  0  0  0  0999 V2000
    0.6600    2.1673    2.0999 N   0  0  0  0  0  0  0  0  0  0  0  0
    0.4582    0.9679    1.3680 C   0  0  0  0  0  0  0  0  0  0  0  0
   -0.8215    0.4243    1.2328 C   0  0  0  0  0  0  0  0  0  0  0  0
   -1.0086   -0.7413    0.5199 C   0  0  0  0  0  0  0  0  0  0  0  0
   -2.3580   -1.2729    0.4039 C   0  0  0  0  0  0  0  0  0  0  0  0
   -2.6742   -2.4143    0.8288 O   0  0  0  0  0  0  0  0  0  0  0  0
   -3.3561   -0.4776   -0.2104 N   0  0  0  0  0  0  0  0  0  0  0  0
   -4.7128   -0.9915   -0.3363 C   0  0  0  0  0  0  0  0  0  0  0  0
   -5.6538    0.1427    0.0306 C   0  0  0  0  0  0  0  0  0  0  0  0
   -5.5389    1.3391   -1.3561 S   0  0  0  0  0  0  0  0  0  0  0  0
   -3.7999    1.2331   -1.9274 C   0  0  0  0  0  0  0  0  0  0  0  0
   -2.9971    0.8294   -0.6978 C   0  0  0  0  0  0  0  0  0  0  0  0
    0.0858   -1.3645   -0.0587 C   0  0  0  0  0  0  0  0  0  0  0  0
    1.3404   -0.8169    0.0832 C   0  0  0  0  0  0  0  0  0  0  0  0
    2.5759   -1.1915   -0.3601 N   0  0  0  0  0  0  0  0  0  0  0  0
    3.4491   -0.2945    0.0679 C   0  0  0  0  0  0  0  0  0  0  0  0
    4.9107   -0.2222   -0.1277 C   0  0  0  0  0  0  0  0  0  0  0  0
    5.6425    0.9352   -0.2991 C   0  0  0  0  0  0  0  0  0  0  0  0
    6.9693    0.5804   -0.4490 C   0  0  0  0  0  0  0  0  0  0  0  0
    6.9819   -0.7983   -0.3602 C   0  0  0  0  0  0  0  0  0  0  0  0
    8.5809   -1.8588   -0.4994 Br  0  0  0  0  0  0  0  0  0  0  0  0
    5.7486   -1.2462   -0.1698 O   0  0  0  0  0  0  0  0  0  0  0  0
    2.7549    0.6205    0.7665 N   0  0  0  0  0  0  0  0  0  0  0  0
    1.4644    0.3111    0.7825 N   0  0  0  0  0  0  0  0  0  0  0  0
    1.6075    2.5601    2.1938 H   0  0  0  0  0  0  0  0  0  0  0  0
   -0.1411    2.6448    2.5371 H   0  0  0  0  0  0  0  0  0  0  0  0
   -1.6827    0.9276    1.6964 H   0  0  0  0  0  0  0  0  0  0  0  0
   -4.8989   -1.3170   -1.3704 H   0  0  0  0  0  0  0  0  0  0  0  0
   -4.8669   -1.8580    0.3236 H   0  0  0  0  0  0  0  0  0  0  0  0
   -6.6838   -0.2297    0.1333 H   0  0  0  0  0  0  0  0  0  0  0  0
   -5.3836    0.6037    0.9921 H   0  0  0  0  0  0  0  0  0  0  0  0
   -3.6997    0.4757   -2.7187 H   0  0  0  0  0  0  0  0  0  0  0  0
   -3.4489    2.1852   -2.3520 H   0  0  0  0  0  0  0  0  0  0  0  0
   -1.9286    0.8274   -0.9590 H   0  0  0  0  0  0  0  0  0  0  0  0
   -3.2170    1.5556    0.0987 H   0  0  0  0  0  0  0  0  0  0  0  0
   -0.0481   -2.2948   -0.6301 H   0  0  0  0  0  0  0  0  0  0  0  0
    5.2405    1.9590   -0.3138 H   0  0  0  0  0  0  0  0  0  0  0  0
    7.8283    1.2496   -0.6050 H   0  0  0  0  0  0  0  0  0  0  0  0
  1  2  1  0
  2  3  2  0
  3  4  1  0
  4  5  1  0
  5  6  2  0
  5  7  1  0
  7  8  1  0
  8  9  1  0
  9 10  1  0
 10 11  1  0
 11 12  1  0
  4 13  2  0
 13 14  1  0
 14 15  2  0
 15 16  1  0
 16 17  1  0
 17 18  2  0
 18 19  1  0
 19 20  2  0
 20 21  1  0
 20 22  1  0
 16 23  2  0
 23 24  1  0
 24  2  1  0
 12  7  1  0
 24 14  1  0
 22 17  1  0
  1 25  1  0
  1 26  1  0
  3 27  1  0
  8 28  1  0
  8 29  1  0
  9 30  1  0
  9 31  1  0
 11 32  1  0
 11 33  1  0
 12 34  1  0
 12 35  1  0
 13 36  1  0
 18 37  1  0
 19 38  1  0
M  END
>  <Original_Name>  (20) 
CHEMBL325237

>  <ROSHAMBO_ComboTanimoto>  (20) 
1.08

>  <ROSHAMBO_ShapeTanimoto>  (20) 
0.723

>  <ROSHAMBO_ColorTanimoto>  (20) 
0.358

>  <ROSHAMBO_FitTverskyCombo>  (20) 
1.477

>  <ROSHAMBO_FitTversky>  (20) 
0.871

>  <ROSHAMBO_FitColorTversky>  (20) 
0.605

>  <ROSHAMBO_RefTverskyCombo>  (20) 
1.276

>  <ROSHAMBO_RefTversky>  (20) 
0.809

>  <ROSHAMBO_RefColorTversky>  (20) 
0.467

>  <ROSHAMBO_Overlap>  (20) 
991.335

$$$$
CHEMBL1092271_0_76
     RDKit          3D

 30 33  0  0  0  0  0  0  0  0999 V2000
   -3.8162    0.4278   -1.2556 C   0  0  0  0  0  0  0  0  0  0  0  0
   -3.4509   -0.7430   -0.7871 C   0  0  0  0  0  0  0  0  0  0  0  0
   -2.9537   -0.9546    0.5978 C   0  0  0  0  0  0  0  0  0  0  0  0
   -1.5686   -1.5059    0.4230 N   0  0  0  0  0  0  0  0  0  0  0  0
   -1.4670   -2.8286    0.3352 C   0  0  0  0  0  0  0  0  0  0  0  0
   -2.5217   -4.0632    0.3680 S   0  0  0  0  0  0  0  0  0  0  0  0
    0.3581   -3.0081    0.1426 S   0  0  0  0  0  0  0  0  0  0  0  0
    0.7188   -1.3266    0.2052 C   0  0  0  0  0  0  0  0  0  0  0  0
   -0.5229   -0.7410    0.3635 C   0  0  0  0  0  0  0  0  0  0  0  0
   -0.4492    0.6404    0.4371 N   0  0  0  0  0  0  0  0  0  0  0  0
    0.6669    1.3262    0.3659 C   0  0  0  0  0  0  0  0  0  0  0  0
    1.8571    0.7643    0.2142 N   0  0  0  0  0  0  0  0  0  0  0  0
    3.0757    1.2150    0.1190 N   0  0  0  0  0  0  0  0  0  0  0  0
    3.9352    0.1619   -0.0285 C   0  0  0  0  0  0  0  0  0  0  0  0
    5.3666    0.3462   -0.1605 C   0  0  0  0  0  0  0  0  0  0  0  0
    6.3083    0.3837    0.8742 C   0  0  0  0  0  0  0  0  0  0  0  0
    7.5531    0.5777    0.3086 C   0  0  0  0  0  0  0  0  0  0  0  0
    7.3118    0.6502   -1.0559 C   0  0  0  0  0  0  0  0  0  0  0  0
    6.0337    0.5106   -1.2722 O   0  0  0  0  0  0  0  0  0  0  0  0
    3.1716   -0.9423   -0.0170 N   0  0  0  0  0  0  0  0  0  0  0  0
    1.9019   -0.5728    0.1313 C   0  0  0  0  0  0  0  0  0  0  0  0
   -4.1758    0.5180   -2.2913 H   0  0  0  0  0  0  0  0  0  0  0  0
   -3.7627    1.3186   -0.6125 H   0  0  0  0  0  0  0  0  0  0  0  0
   -3.5162   -1.6143   -1.4554 H   0  0  0  0  0  0  0  0  0  0  0  0
   -2.9263   -0.0037    1.1500 H   0  0  0  0  0  0  0  0  0  0  0  0
   -3.6018   -1.6306    1.1748 H   0  0  0  0  0  0  0  0  0  0  0  0
    0.6118    2.4226    0.4356 H   0  0  0  0  0  0  0  0  0  0  0  0
    6.0946    0.2775    1.9480 H   0  0  0  0  0  0  0  0  0  0  0  0
    8.5210    0.6570    0.8252 H   0  0  0  0  0  0  0  0  0  0  0  0
    8.0770    0.8013   -1.8315 H   0  0  0  0  0  0  0  0  0  0  0  0
  1  2  2  3
  2  3  1  0
  3  4  1  0
  4  5  1  0
  5  6  2  0
  5  7  1  0
  7  8  1  0
  8  9  2  0
  9 10  1  0
 10 11  2  0
 11 12  1  0
 12 13  1  0
 13 14  2  0
 14 15  1  0
 15 16  2  0
 16 17  1  0
 17 18  2  0
 18 19  1  0
 14 20  1  0
 20 21  2  0
  9  4  1  0
 21 12  1  0
 21  8  1  0
 19 15  1  0
  1 22  1  0
  1 23  1  0
  2 24  1  0
  3 25  1  0
  3 26  1  0
 11 27  1  0
 16 28  1  0
 17 29  1  0
 18 30  1  0
M  END
>  <Original_Name>  (21) 
CHEMBL1092271

>  <ROSHAMBO_ComboTanimoto>  (21) 
1.08

>  <ROSHAMBO_ShapeTanimoto>  (21) 
0.693

>  <ROSHAMBO_ColorTanimoto>  (21) 
0.387

>  <ROSHAMBO_FitTverskyCombo>  (21) 
1.458

>  <ROSHAMBO_FitTversky>  (21) 
0.895

>  <ROSHAMBO_FitColorTversky>  (21) 
0.563

>  <ROSHAMBO_RefTverskyCombo>  (21) 
1.308

>  <ROSHAMBO_RefTversky>  (21) 
0.754

>  <ROSHAMBO_RefColorTversky>  (21) 
0.554

>  <ROSHAMBO_Overlap>  (21) 
920.304

$$$$
CHEMBL113542_0_13
     RDKit          3D

 43 46  0  0  0  0  0  0  0  0999 V2000
   -7.0725    1.8336   -0.5016 C   0  0  0  0  0  0  0  0  0  0  0  0
   -6.0115    0.7553   -0.3851 C   0  0  0  0  0  0  0  0  0  0  0  0
   -6.6995   -0.4942    0.1251 C   0  0  0  0  0  0  0  0  0  0  0  0
   -5.7739   -1.4910    0.7013 C   0  0  0  0  0  0  0  0  0  0  0  0
   -4.2969   -1.2641    0.4235 C   0  0  0  0  0  0  0  0  0  0  0  0
   -3.9063    0.0877    0.4818 N   0  0  0  0  0  0  0  0  0  0  0  0
   -2.6041    0.5740    0.3954 C   0  0  0  0  0  0  0  0  0  0  0  0
   -2.5682    1.8934    0.4692 O   0  0  0  0  0  0  0  0  0  0  0  0
   -1.3437   -0.0803    0.2480 C   0  0  0  0  0  0  0  0  0  0  0  0
   -0.1936    0.7244    0.3244 C   0  0  0  0  0  0  0  0  0  0  0  0
    1.0499    0.2258    0.2087 N   0  0  0  0  0  0  0  0  0  0  0  0
    2.2553    0.7872    0.2490 N   0  0  0  0  0  0  0  0  0  0  0  0
    3.1999   -0.1413    0.0823 C   0  0  0  0  0  0  0  0  0  0  0  0
    4.6476    0.1062    0.0641 C   0  0  0  0  0  0  0  0  0  0  0  0
    5.6171   -0.6751    0.6253 C   0  0  0  0  0  0  0  0  0  0  0  0
    6.8363   -0.0695    0.3699 C   0  0  0  0  0  0  0  0  0  0  0  0
    6.5469    1.0715   -0.3465 C   0  0  0  0  0  0  0  0  0  0  0  0
    7.8822    2.3023   -0.9678 Br  0  0  0  0  0  0  0  0  0  0  0  0
    5.2537    1.1428   -0.5078 O   0  0  0  0  0  0  0  0  0  0  0  0
    2.5948   -1.3161   -0.0673 N   0  0  0  0  0  0  0  0  0  0  0  0
    1.2564   -1.0861    0.0117 C   0  0  0  0  0  0  0  0  0  0  0  0
    0.1906   -1.9550   -0.0769 C   0  0  0  0  0  0  0  0  0  0  0  0
    0.3341   -3.3589   -0.2743 N   0  0  0  0  0  0  0  0  0  0  0  0
   -1.0953   -1.4083    0.0463 C   0  0  0  0  0  0  0  0  0  0  0  0
   -4.9842    1.1044    0.6700 C   0  0  0  0  0  0  0  0  0  0  0  0
   -7.3848    2.1509    0.5043 H   0  0  0  0  0  0  0  0  0  0  0  0
   -6.6609    2.6957   -1.0468 H   0  0  0  0  0  0  0  0  0  0  0  0
   -7.9412    1.4358   -1.0468 H   0  0  0  0  0  0  0  0  0  0  0  0
   -5.5257    0.6361   -1.3648 H   0  0  0  0  0  0  0  0  0  0  0  0
   -7.4205   -0.2005    0.9022 H   0  0  0  0  0  0  0  0  0  0  0  0
   -7.1840   -0.9695   -0.7405 H   0  0  0  0  0  0  0  0  0  0  0  0
   -5.9155   -1.4912    1.7922 H   0  0  0  0  0  0  0  0  0  0  0  0
   -6.0249   -2.4456    0.2159 H   0  0  0  0  0  0  0  0  0  0  0  0
   -3.7141   -1.8255    1.1686 H   0  0  0  0  0  0  0  0  0  0  0  0
   -4.1091   -1.6067   -0.6048 H   0  0  0  0  0  0  0  0  0  0  0  0
   -0.3158    1.8056    0.4855 H   0  0  0  0  0  0  0  0  0  0  0  0
    5.4589   -1.6127    1.1783 H   0  0  0  0  0  0  0  0  0  0  0  0
    7.8309   -0.4260    0.6760 H   0  0  0  0  0  0  0  0  0  0  0  0
   -0.5011   -3.9588   -0.3326 H   0  0  0  0  0  0  0  0  0  0  0  0
    1.2731   -3.7738   -0.3588 H   0  0  0  0  0  0  0  0  0  0  0  0
   -1.9556   -2.0901   -0.0236 H   0  0  0  0  0  0  0  0  0  0  0  0
   -5.4191    1.0300    1.6776 H   0  0  0  0  0  0  0  0  0  0  0  0
   -4.6131    2.1352    0.5722 H   0  0  0  0  0  0  0  0  0  0  0  0
  1  2  1  0
  2  3  1  0
  3  4  1  0
  4  5  1  0
  5  6  1  0
  6  7  1  0
  7  8  2  0
  7  9  1  0
  9 10  2  0
 10 11  1  0
 11 12  1  0
 12 13  2  0
 13 14  1  0
 14 15  2  0
 15 16  1  0
 16 17  2  0
 17 18  1  0
 17 19  1  0
 13 20  1  0
 20 21  2  0
 21 22  1  0
 22 23  1  0
 22 24  2  0
  6 25  1  0
 25  2  1  0
 24  9  1  0
 21 11  1  0
 19 14  1  0
  1 26  1  0
  1 27  1  0
  1 28  1  0
  2 29  1  0
  3 30  1  0
  3 31  1  0
  4 32  1  0
  4 33  1  0
  5 34  1  0
  5 35  1  0
 10 36  1  0
 15 37  1  0
 16 38  1  0
 23 39  1  0
 23 40  1  0
 24 41  1  0
 25 42  1  0
 25 43  1  0
M  END
>  <Original_Name>  (22) 
CHEMBL113542

>  <ROSHAMBO_ComboTanimoto>  (22) 
1.062

>  <ROSHAMBO_ShapeTanimoto>  (22) 
0.723

>  <ROSHAMBO_ColorTanimoto>  (22) 
0.339

>  <ROSHAMBO_FitTverskyCombo>  (22) 
1.411

>  <ROSHAMBO_FitTversky>  (22) 
0.851

>  <ROSHAMBO_FitColorTversky>  (22) 
0.56

>  <ROSHAMBO_RefTverskyCombo>  (22) 
1.29

>  <ROSHAMBO_RefTversky>  (22) 
0.828

>  <ROSHAMBO_RefColorTversky>  (22) 
0.462

>  <ROSHAMBO_Overlap>  (22) 
1017.128

$$$$
CHEMBL300624_0_84
     RDKit          3D

 40 42  0  0  0  0  0  0  0  0999 V2000
    1.8478    2.1815   -0.5159 C   0  0  0  0  0  0  0  0  0  0  0  0
    1.7122    0.7153   -0.2193 N   0  0  0  0  0  0  0  0  0  0  0  0
    0.5448    0.1800   -0.0750 C   0  0  0  0  0  0  0  0  0  0  0  0
   -0.7323    0.2721   -0.0630 N   0  0  0  0  0  0  0  0  0  0  0  0
   -1.7778   -0.1274    0.0644 C   0  0  0  0  0  0  0  0  0  0  0  0
   -3.1169    0.0109   -0.0054 C   0  0  0  0  0  0  0  0  0  0  0  0
   -4.4240    0.1454   -0.0596 C   0  0  0  0  0  0  0  0  0  0  0  0
   -5.8090    0.2911   -0.0949 C   0  0  0  0  0  0  0  0  0  0  0  0
   -6.3618    1.1822   -1.1357 C   0  0  0  0  0  0  0  0  0  0  0  0
   -6.6057   -0.9509    0.1625 C   0  0  0  0  0  0  0  0  0  0  0  0
   -6.0509    1.0947    1.1531 O   0  0  0  0  0  0  0  0  0  0  0  0
   -1.5316   -1.6950    0.4076 N   0  0  0  0  0  0  0  0  0  0  0  0
   -0.2649   -2.0077    0.4418 C   0  0  0  0  0  0  0  0  0  0  0  0
    0.0139   -3.4446    0.6468 N   0  0  0  0  0  0  0  0  0  0  0  0
    0.8547   -1.2109    0.2387 C   0  0  0  0  0  0  0  0  0  0  0  0
    2.1692   -1.3218    0.2338 N   0  0  0  0  0  0  0  0  0  0  0  0
    2.7331   -0.1048   -0.0571 C   0  0  0  0  0  0  0  0  0  0  0  0
    4.1475    0.1284   -0.1387 C   0  0  0  0  0  0  0  0  0  0  0  0
    4.9395   -0.8365   -0.7973 C   0  0  0  0  0  0  0  0  0  0  0  0
    6.2898   -0.6373   -0.9425 C   0  0  0  0  0  0  0  0  0  0  0  0
    6.8959    0.5112   -0.4426 C   0  0  0  0  0  0  0  0  0  0  0  0
    6.1602    1.4753    0.2089 C   0  0  0  0  0  0  0  0  0  0  0  0
    6.7614    2.6044    0.6472 F   0  0  0  0  0  0  0  0  0  0  0  0
    4.7852    1.2392    0.3401 C   0  0  0  0  0  0  0  0  0  0  0  0
    1.8998    2.7433    0.4283 H   0  0  0  0  0  0  0  0  0  0  0  0
    2.7658    2.3547   -1.0967 H   0  0  0  0  0  0  0  0  0  0  0  0
    0.9772    2.5202   -1.0967 H   0  0  0  0  0  0  0  0  0  0  0  0
   -6.8842    2.0242   -0.6579 H   0  0  0  0  0  0  0  0  0  0  0  0
   -5.5432    1.5665   -1.7621 H   0  0  0  0  0  0  0  0  0  0  0  0
   -7.0696    0.6195   -1.7621 H   0  0  0  0  0  0  0  0  0  0  0  0
   -6.7045   -1.1049    1.2472 H   0  0  0  0  0  0  0  0  0  0  0  0
   -7.6048   -0.8450   -0.2853 H   0  0  0  0  0  0  0  0  0  0  0  0
   -6.0929   -1.8149   -0.2853 H   0  0  0  0  0  0  0  0  0  0  0  0
   -5.8807    0.5293    1.9478 H   0  0  0  0  0  0  0  0  0  0  0  0
    0.9869   -3.7798    0.6869 H   0  0  0  0  0  0  0  0  0  0  0  0
   -0.7650   -4.1107    0.7497 H   0  0  0  0  0  0  0  0  0  0  0  0
    4.4737   -1.7501   -1.1951 H   0  0  0  0  0  0  0  0  0  0  0  0
    6.8991   -1.3935   -1.4592 H   0  0  0  0  0  0  0  0  0  0  0  0
    7.9795    0.6509   -0.5700 H   0  0  0  0  0  0  0  0  0  0  0  0
    4.1802    1.9957    0.8614 H   0  0  0  0  0  0  0  0  0  0  0  0
  1  2  1  0
  2  3  1  0
  3  4  2  0
  4  5  1  0
  5  6  1  0
  6  7  3  0
  7  8  1  0
  8  9  1  0
  8 10  1  0
  8 11  1  0
  5 12  2  0
 12 13  1  0
 13 14  1  0
 13 15  2  0
 15 16  1  0
 16 17  2  0
 17 18  1  0
 18 19  2  0
 19 20  1  0
 20 21  2  0
 21 22  1  0
 22 23  1  0
 22 24  2  0
 17  2  1  0
 24 18  1  0
 15  3  1  0
  1 25  1  0
  1 26  1  0
  1 27  1  0
  9 28  1  0
  9 29  1  0
  9 30  1  0
 10 31  1  0
 10 32  1  0
 10 33  1  0
 11 34  1  0
 14 35  1  0
 14 36  1  0
 19 37  1  0
 20 38  1  0
 21 39  1  0
 24 40  1  0
M  END
>  <Original_Name>  (23) 
CHEMBL300624

>  <ROSHAMBO_ComboTanimoto>  (23) 
1.05

>  <ROSHAMBO_ShapeTanimoto>  (23) 
0.743

>  <ROSHAMBO_ColorTanimoto>  (23) 
0.307

>  <ROSHAMBO_FitTverskyCombo>  (23) 
1.367

>  <ROSHAMBO_FitTversky>  (23) 
0.882

>  <ROSHAMBO_FitColorTversky>  (23) 
0.485

>  <ROSHAMBO_RefTverskyCombo>  (23) 
1.28

>  <ROSHAMBO_RefTversky>  (23) 
0.826

>  <ROSHAMBO_RefColorTversky>  (23) 
0.455

>  <ROSHAMBO_Overlap>  (23) 
1012.577

$$$$
CHEMBL601628_0_37
     RDKit          3D

 44 46  0  0  0  0  0  0  0  0999 V2000
   -6.4304    1.0202    0.7984 C   0  0  0  0  0  0  0  0  0  0  0  0
   -6.1128    0.4871   -0.5545 C   0  0  0  0  0  0  0  0  0  0  0  0
   -4.6612    0.1242   -0.7339 C   0  0  0  0  0  0  0  0  0  0  0  0
   -4.1937   -0.9207    0.2181 C   0  0  0  0  0  0  0  0  0  0  0  0
   -2.8003   -1.2931    0.0688 N   0  0  0  0  0  0  0  0  0  0  0  0
   -1.7163   -0.4004    0.2218 C   0  0  0  0  0  0  0  0  0  0  0  0
   -2.0205    0.8076    0.5131 O   0  0  0  0  0  0  0  0  0  0  0  0
   -0.3066   -0.7789    0.0678 C   0  0  0  0  0  0  0  0  0  0  0  0
    0.0870   -2.0540   -0.2433 C   0  0  0  0  0  0  0  0  0  0  0  0
    1.4309   -2.3653   -0.3787 C   0  0  0  0  0  0  0  0  0  0  0  0
    1.8014   -3.6934   -0.7008 N   0  0  0  0  0  0  0  0  0  0  0  0
    2.3834   -1.3752   -0.1970 C   0  0  0  0  0  0  0  0  0  0  0  0
    3.8111   -1.6595   -0.3302 C   0  0  0  0  0  0  0  0  0  0  0  0
    4.1261   -2.8519   -0.6186 O   0  0  0  0  0  0  0  0  0  0  0  0
    4.8398   -0.6446   -0.1464 C   0  0  0  0  0  0  0  0  0  0  0  0
    6.1811   -0.9340   -0.2766 C   0  0  0  0  0  0  0  0  0  0  0  0
    7.1440    0.0593   -0.0947 C   0  0  0  0  0  0  0  0  0  0  0  0
    6.7860    1.3530    0.2190 C   0  0  0  0  0  0  0  0  0  0  0  0
    5.4417    1.6348    0.3476 C   0  0  0  0  0  0  0  0  0  0  0  0
    4.4750    0.6474    0.1672 C   0  0  0  0  0  0  0  0  0  0  0  0
    3.0545    0.9406    0.3021 C   0  0  0  0  0  0  0  0  0  0  0  0
    2.7052    2.1137    0.5877 O   0  0  0  0  0  0  0  0  0  0  0  0
    2.0228   -0.0810    0.1169 C   0  0  0  0  0  0  0  0  0  0  0  0
    0.6846    0.1939    0.2437 C   0  0  0  0  0  0  0  0  0  0  0  0
    0.2998    1.5256    0.5673 N   0  0  0  0  0  0  0  0  0  0  0  0
   -6.0262    0.3417    1.5641 H   0  0  0  0  0  0  0  0  0  0  0  0
   -5.9784    2.0162    0.9155 H   0  0  0  0  0  0  0  0  0  0  0  0
   -7.5215    1.0967    0.9155 H   0  0  0  0  0  0  0  0  0  0  0  0
   -6.7203   -0.4140   -0.7248 H   0  0  0  0  0  0  0  0  0  0  0  0
   -6.3376    1.2855   -1.2770 H   0  0  0  0  0  0  0  0  0  0  0  0
   -4.5184   -0.2483   -1.7590 H   0  0  0  0  0  0  0  0  0  0  0  0
   -4.0716    1.0318   -0.5369 H   0  0  0  0  0  0  0  0  0  0  0  0
   -4.3403   -0.5434    1.2409 H   0  0  0  0  0  0  0  0  0  0  0  0
   -4.7827   -1.8244    0.0030 H   0  0  0  0  0  0  0  0  0  0  0  0
   -2.5868   -2.2734   -0.1641 H   0  0  0  0  0  0  0  0  0  0  0  0
   -0.6709   -2.8381   -0.3870 H   0  0  0  0  0  0  0  0  0  0  0  0
    2.7961   -3.9398   -0.8047 H   0  0  0  0  0  0  0  0  0  0  0  0
    1.0762   -4.4131   -0.8313 H   0  0  0  0  0  0  0  0  0  0  0  0
    6.4955   -1.9580   -0.5264 H   0  0  0  0  0  0  0  0  0  0  0  0
    8.2087   -0.1947   -0.2036 H   0  0  0  0  0  0  0  0  0  0  0  0
    7.5467    2.1345    0.3620 H   0  0  0  0  0  0  0  0  0  0  0  0
    5.1267    2.6587    0.5974 H   0  0  0  0  0  0  0  0  0  0  0  0
   -0.6972    1.7632    0.6693 H   0  0  0  0  0  0  0  0  0  0  0  0
    1.0183    2.2516    0.6996 H   0  0  0  0  0  0  0  0  0  0  0  0
  1  2  1  0
  2  3  1  0
  3  4  1  0
  4  5  1  0
  5  6  1  0
  6  7  2  0
  6  8  1  0
  8  9  2  0
  9 10  1  0
 10 11  1  0
 10 12  2  0
 12 13  1  0
 13 14  2  0
 13 15  1  0
 15 16  2  0
 16 17  1  0
 17 18  2  0
 18 19  1  0
 19 20  2  0
 20 21  1  0
 21 22  2  0
 21 23  1  0
 23 24  2  0
 24 25  1  0
 24  8  1  0
 23 12  1  0
 20 15  1  0
  1 26  1  0
  1 27  1  0
  1 28  1  0
  2 29  1  0
  2 30  1  0
  3 31  1  0
  3 32  1  0
  4 33  1  0
  4 34  1  0
  5 35  1  0
  9 36  1  0
 11 37  1  0
 11 38  1  0
 16 39  1  0
 17 40  1  0
 18 41  1  0
 19 42  1  0
 25 43  1  0
 25 44  1  0
M  END
>  <Original_Name>  (24) 
CHEMBL601628

>  <ROSHAMBO_ComboTanimoto>  (24) 
1.034

>  <ROSHAMBO_ShapeTanimoto>  (24) 
0.752

>  <ROSHAMBO_ColorTanimoto>  (24) 
0.283

>  <ROSHAMBO_FitTverskyCombo>  (24) 
1.336

>  <ROSHAMBO_FitTversky>  (24) 
0.874

>  <ROSHAMBO_FitColorTversky>  (24) 
0.462

>  <ROSHAMBO_RefTverskyCombo>  (24) 
1.265

>  <ROSHAMBO_RefTversky>  (24) 
0.843

>  <ROSHAMBO_RefColorTversky>  (24) 
0.421

>  <ROSHAMBO_Overlap>  (24) 
1035.793

$$$$
CHEMBL177330_0_13
     RDKit          3D

 31 34  0  0  0  0  0  0  0  0999 V2000
    0.2883   -3.5226    0.0013 N   0  0  0  0  0  0  0  0  0  0  0  0
   -0.1024   -2.1541    0.0076 C   0  0  0  0  0  0  0  0  0  0  0  0
   -1.3884   -1.7691   -0.0056 N   0  0  0  0  0  0  0  0  0  0  0  0
   -1.7937   -0.4896   -0.0003 C   0  0  0  0  0  0  0  0  0  0  0  0
   -3.2386   -0.1627   -0.0159 C   0  0  0  0  0  0  0  0  0  0  0  0
   -4.1842   -1.1603   -0.0360 C   0  0  0  0  0  0  0  0  0  0  0  0
   -5.5410   -0.9277   -0.0513 C   0  0  0  0  0  0  0  0  0  0  0  0
   -5.9434    0.3945   -0.0455 C   0  0  0  0  0  0  0  0  0  0  0  0
   -4.9836    1.3840   -0.0253 C   0  0  0  0  0  0  0  0  0  0  0  0
   -3.6515    1.1156   -0.0106 N   0  0  0  0  0  0  0  0  0  0  0  0
   -0.8446    0.4927    0.0199 C   0  0  0  0  0  0  0  0  0  0  0  0
    0.4885    0.1408    0.0340 C   0  0  0  0  0  0  0  0  0  0  0  0
    1.6574    0.8450    0.0547 N   0  0  0  0  0  0  0  0  0  0  0  0
    2.6970   -0.0150    0.0608 C   0  0  0  0  0  0  0  0  0  0  0  0
    4.1283    0.2742    0.0815 C   0  0  0  0  0  0  0  0  0  0  0  0
    4.7557    1.4070    0.5324 C   0  0  0  0  0  0  0  0  0  0  0  0
    6.1209    1.1852    0.3336 C   0  0  0  0  0  0  0  0  0  0  0  0
    6.2434   -0.0582   -0.2215 C   0  0  0  0  0  0  0  0  0  0  0  0
    5.0576   -0.5646   -0.3558 O   0  0  0  0  0  0  0  0  0  0  0  0
    2.1325   -1.2578    0.0434 N   0  0  0  0  0  0  0  0  0  0  0  0
    0.8297   -1.1597    0.0276 N   0  0  0  0  0  0  0  0  0  0  0  0
    1.2873   -3.7730    0.0120 H   0  0  0  0  0  0  0  0  0  0  0  0
   -0.4280   -4.2626   -0.0138 H   0  0  0  0  0  0  0  0  0  0  0  0
   -3.8369   -2.2041   -0.0402 H   0  0  0  0  0  0  0  0  0  0  0  0
   -6.2683   -1.7527   -0.0673 H   0  0  0  0  0  0  0  0  0  0  0  0
   -7.0125    0.6533   -0.0569 H   0  0  0  0  0  0  0  0  0  0  0  0
   -5.3096    2.4345   -0.0208 H   0  0  0  0  0  0  0  0  0  0  0  0
   -1.1405    1.5521    0.0248 H   0  0  0  0  0  0  0  0  0  0  0  0
    4.2830    2.3030    0.9610 H   0  0  0  0  0  0  0  0  0  0  0  0
    6.9399    1.8780    0.5771 H   0  0  0  0  0  0  0  0  0  0  0  0
    7.1875   -0.5459   -0.5058 H   0  0  0  0  0  0  0  0  0  0  0  0
  1  2  1  0
  2  3  2  0
  3  4  1  0
  4  5  1  0
  5  6  2  0
  6  7  1  0
  7  8  2  0
  8  9  1  0
  9 10  2  0
  4 11  2  0
 11 12  1  0
 12 13  2  0
 13 14  1  0
 14 15  1  0
 15 16  2  0
 16 17  1  0
 17 18  2  0
 18 19  1  0
 14 20  2  0
 20 21  1  0
 21  2  1  0
 10  5  1  0
 21 12  1  0
 19 15  1  0
  1 22  1  0
  1 23  1  0
  6 24  1  0
  7 25  1  0
  8 26  1  0
  9 27  1  0
 11 28  1  0
 16 29  1  0
 17 30  1  0
 18 31  1  0
M  END
>  <Original_Name>  (25) 
CHEMBL177330

>  <ROSHAMBO_ComboTanimoto>  (25) 
1.022

>  <ROSHAMBO_ShapeTanimoto>  (25) 
0.72

>  <ROSHAMBO_ColorTanimoto>  (25) 
0.302

>  <ROSHAMBO_FitTverskyCombo>  (25) 
1.417

>  <ROSHAMBO_FitTversky>  (25) 
0.903

>  <ROSHAMBO_FitColorTversky>  (25) 
0.514

>  <ROSHAMBO_RefTverskyCombo>  (25) 
1.204

>  <ROSHAMBO_RefTversky>  (25) 
0.78

>  <ROSHAMBO_RefColorTversky>  (25) 
0.424

>  <ROSHAMBO_Overlap>  (25) 
952.65

$$$$
CHEMBL68738_0_20
     RDKit          3D

 45 48  0  0  0  0  0  0  0  0999 V2000
   -6.5005    0.9555   -0.5546 O   0  0  0  0  0  0  0  0  0  0  0  0
   -5.1822    1.2081   -0.2094 C   0  0  0  0  0  0  0  0  0  0  0  0
   -4.2815    0.2147   -0.9054 C   0  0  1  0  0  0  0  0  0  0  0  0
   -2.9551    0.3992   -0.6137 O   0  0  0  0  0  0  0  0  0  0  0  0
   -2.5520   -0.5579    0.2838 C   0  0  2  0  0  0  0  0  0  0  0  0
   -1.1215   -0.8566    0.1611 N   0  0  0  0  0  0  0  0  0  0  0  0
   -0.5654   -2.0350   -0.1733 C   0  0  0  0  0  0  0  0  0  0  0  0
    0.7852   -1.8844   -0.1724 N   0  0  0  0  0  0  0  0  0  0  0  0
    1.1047   -0.6167    0.1603 C   0  0  0  0  0  0  0  0  0  0  0  0
    2.3110    0.0404    0.3021 C   0  0  0  0  0  0  0  0  0  0  0  0
    3.5482   -0.6191    0.0877 N   0  0  0  0  0  0  0  0  0  0  0  0
    4.7929    0.0569    0.2335 C   0  0  0  0  0  0  0  0  0  0  0  0
    5.9482   -0.8790   -0.0532 C   0  0  0  0  0  0  0  0  0  0  0  0
    7.1098    0.1056   -0.1647 C   0  0  0  0  0  0  0  0  0  0  0  0
    6.5077    1.3724   -0.7012 C   0  0  0  0  0  0  0  0  0  0  0  0
    5.0181    1.1344   -0.8173 C   0  0  0  0  0  0  0  0  0  0  0  0
    2.2484    1.3395    0.6545 N   0  0  0  0  0  0  0  0  0  0  0  0
    1.0766    1.9840    0.8629 C   0  0  0  0  0  0  0  0  0  0  0  0
   -0.0777    1.3196    0.7176 N   0  0  0  0  0  0  0  0  0  0  0  0
   -0.1090    0.0121    0.3657 C   0  0  0  0  0  0  0  0  0  0  0  0
   -3.3311   -1.7868   -0.1339 C   0  0  1  0  0  0  0  0  0  0  0  0
   -3.4371   -2.7308    0.8572 O   0  0  0  0  0  0  0  0  0  0  0  0
   -4.6687   -1.1802   -0.5137 C   0  0  1  0  0  0  0  0  0  0  0  0
   -5.5350   -1.2110    0.5877 O   0  0  0  0  0  0  0  0  0  0  0  0
   -7.0427    0.8516    0.2672 H   0  0  0  0  0  0  0  0  0  0  0  0
   -4.9110    2.2284   -0.5184 H   0  0  0  0  0  0  0  0  0  0  0  0
   -5.0628    1.1115    0.8798 H   0  0  0  0  0  0  0  0  0  0  0  0
   -4.4125    0.3741   -1.9859 H   0  0  0  0  0  0  0  0  0  0  0  0
   -2.7230   -0.2325    1.3205 H   0  0  0  0  0  0  0  0  0  0  0  0
   -1.1103   -2.9614   -0.4073 H   0  0  0  0  0  0  0  0  0  0  0  0
    3.5462   -1.6135   -0.1807 H   0  0  0  0  0  0  0  0  0  0  0  0
    4.7545    0.4578    1.2571 H   0  0  0  0  0  0  0  0  0  0  0  0
    6.1025   -1.5923    0.7699 H   0  0  0  0  0  0  0  0  0  0  0  0
    5.8063   -1.5110   -0.9423 H   0  0  0  0  0  0  0  0  0  0  0  0
    7.5611    0.2820    0.8229 H   0  0  0  0  0  0  0  0  0  0  0  0
    7.9089   -0.2762   -0.8170 H   0  0  0  0  0  0  0  0  0  0  0  0
    6.7052    2.2068   -0.0122 H   0  0  0  0  0  0  0  0  0  0  0  0
    6.9426    1.6331   -1.6774 H   0  0  0  0  0  0  0  0  0  0  0  0
    4.4475    2.0458   -0.5853 H   0  0  0  0  0  0  0  0  0  0  0  0
    4.6899    0.8476   -1.8273 H   0  0  0  0  0  0  0  0  0  0  0  0
    1.0720    3.0459    1.1496 H   0  0  0  0  0  0  0  0  0  0  0  0
   -2.8497   -2.3546   -0.9437 H   0  0  0  0  0  0  0  0  0  0  0  0
   -3.3874   -2.2881    1.7413 H   0  0  0  0  0  0  0  0  0  0  0  0
   -5.2084   -1.7059   -1.3152 H   0  0  0  0  0  0  0  0  0  0  0  0
   -5.0060   -1.1922    1.4243 H   0  0  0  0  0  0  0  0  0  0  0  0
  1  2  1  0
  2  3  1  0
  3  4  1  0
  4  5  1  0
  5  6  1  0
  6  7  1  0
  7  8  2  0
  8  9  1  0
  9 10  2  0
 10 11  1  0
 11 12  1  0
 12 13  1  0
 13 14  1  0
 14 15  1  0
 15 16  1  0
 10 17  1  0
 17 18  2  0
 18 19  1  0
 19 20  2  0
  5 21  1  0
 21 22  1  0
 21 23  1  0
 23 24  1  0
 23  3  1  0
 20  6  1  0
 20  9  1  0
 16 12  1  0
  1 25  1  0
  2 26  1  0
  2 27  1  0
  3 28  1  6
  5 29  1  1
  7 30  1  0
 11 31  1  0
 12 32  1  0
 13 33  1  0
 13 34  1  0
 14 35  1  0
 14 36  1  0
 15 37  1  0
 15 38  1  0
 16 39  1  0
 16 40  1  0
 18 41  1  0
 21 42  1  6
 22 43  1  0
 23 44  1  6
 24 45  1  0
M  END
>  <Original_Name>  (26) 
CHEMBL68738

>  <ROSHAMBO_ComboTanimoto>  (26) 
1.022

>  <ROSHAMBO_ShapeTanimoto>  (26) 
0.799

>  <ROSHAMBO_ColorTanimoto>  (26) 
0.224

>  <ROSHAMBO_FitTverskyCombo>  (26) 
1.232

>  <ROSHAMBO_FitTversky>  (26) 
0.914

>  <ROSHAMBO_FitColorTversky>  (26) 
0.318

>  <ROSHAMBO_RefTverskyCombo>  (26) 
1.292

>  <ROSHAMBO_RefTversky>  (26) 
0.864

>  <ROSHAMBO_RefColorTversky>  (26) 
0.429

>  <ROSHAMBO_Overlap>  (26) 
1059.61

$$$$
CHEMBL178589_0_56
     RDKit          3D

 31 34  0  0  0  0  0  0  0  0999 V2000
    0.1649   -3.4823    0.6047 N   0  0  0  0  0  0  0  0  0  0  0  0
   -0.2041   -2.1359    0.3332 C   0  0  0  0  0  0  0  0  0  0  0  0
   -1.5131   -1.8192    0.2026 N   0  0  0  0  0  0  0  0  0  0  0  0
   -1.8988   -0.5614   -0.0532 C   0  0  0  0  0  0  0  0  0  0  0  0
   -3.3386   -0.3010   -0.1805 C   0  0  0  0  0  0  0  0  0  0  0  0
   -4.2510   -1.3292   -0.0384 C   0  0  0  0  0  0  0  0  0  0  0  0
   -5.6011   -1.1231   -0.1506 C   0  0  0  0  0  0  0  0  0  0  0  0
   -6.0564    0.1546   -0.4140 C   0  0  0  0  0  0  0  0  0  0  0  0
   -5.1711    1.1636   -0.5540 N   0  0  0  0  0  0  0  0  0  0  0  0
   -3.8445    0.9535   -0.4423 C   0  0  0  0  0  0  0  0  0  0  0  0
   -0.9306    0.4028   -0.1803 C   0  0  0  0  0  0  0  0  0  0  0  0
    0.4092    0.0747   -0.0459 C   0  0  0  0  0  0  0  0  0  0  0  0
    1.5671    0.7677   -0.1120 N   0  0  0  0  0  0  0  0  0  0  0  0
    2.6075   -0.0482    0.0971 C   0  0  0  0  0  0  0  0  0  0  0  0
    4.0308    0.2714    0.1152 C   0  0  0  0  0  0  0  0  0  0  0  0
    4.5672    1.4941    0.4884 C   0  0  0  0  0  0  0  0  0  0  0  0
    5.9401    1.4217    0.3793 C   0  0  0  0  0  0  0  0  0  0  0  0
    6.1841    0.1250   -0.0668 C   0  0  0  0  0  0  0  0  0  0  0  0
    5.0463   -0.4970   -0.2031 O   0  0  0  0  0  0  0  0  0  0  0  0
    2.0670   -1.2682    0.2953 N   0  0  0  0  0  0  0  0  0  0  0  0
    0.7472   -1.1930    0.2092 N   0  0  0  0  0  0  0  0  0  0  0  0
    1.1586   -3.7336    0.7059 H   0  0  0  0  0  0  0  0  0  0  0  0
   -0.5617   -4.2061    0.7001 H   0  0  0  0  0  0  0  0  0  0  0  0
   -3.8822   -2.3441    0.1713 H   0  0  0  0  0  0  0  0  0  0  0  0
   -6.3079   -1.9578   -0.0334 H   0  0  0  0  0  0  0  0  0  0  0  0
   -7.1350    0.3483   -0.5091 H   0  0  0  0  0  0  0  0  0  0  0  0
   -3.1523    1.7999   -0.5625 H   0  0  0  0  0  0  0  0  0  0  0  0
   -1.2199    1.4431   -0.3903 H   0  0  0  0  0  0  0  0  0  0  0  0
    3.9942    2.3740    0.8163 H   0  0  0  0  0  0  0  0  0  0  0  0
    6.6761    2.2100    0.5957 H   0  0  0  0  0  0  0  0  0  0  0  0
    7.1759   -0.3047   -0.2710 H   0  0  0  0  0  0  0  0  0  0  0  0
  1  2  1  0
  2  3  2  0
  3  4  1  0
  4  5  1  0
  5  6  2  0
  6  7  1  0
  7  8  2  0
  8  9  1  0
  9 10  2  0
  4 11  2  0
 11 12  1  0
 12 13  2  0
 13 14  1  0
 14 15  1  0
 15 16  2  0
 16 17  1  0
 17 18  2  0
 18 19  1  0
 14 20  2  0
 20 21  1  0
 21  2  1  0
 10  5  1  0
 21 12  1  0
 19 15  1  0
  1 22  1  0
  1 23  1  0
  6 24  1  0
  7 25  1  0
  8 26  1  0
 10 27  1  0
 11 28  1  0
 16 29  1  0
 17 30  1  0
 18 31  1  0
M  END
>  <Original_Name>  (27) 
CHEMBL178589

>  <ROSHAMBO_ComboTanimoto>  (27) 
1.019

>  <ROSHAMBO_ShapeTanimoto>  (27) 
0.727

>  <ROSHAMBO_ColorTanimoto>  (27) 
0.292

>  <ROSHAMBO_FitTverskyCombo>  (27) 
1.408

>  <ROSHAMBO_FitTversky>  (27) 
0.908

>  <ROSHAMBO_FitColorTversky>  (27) 
0.5

>  <ROSHAMBO_RefTverskyCombo>  (27) 
1.197

>  <ROSHAMBO_RefTversky>  (27) 
0.785

>  <ROSHAMBO_RefColorTversky>  (27) 
0.412

>  <ROSHAMBO_Overlap>  (27) 
958.77

$$$$
CHEMBL165760_1_47
     RDKit          3D

 41 43  0  0  0  0  0  0  0  0999 V2000
    6.4865    0.0985   -0.4369 C   0  0  0  0  0  0  0  0  0  0  0  0
    5.3146   -0.6822   -0.3449 O   0  0  0  0  0  0  0  0  0  0  0  0
    4.1002   -0.0295   -0.1576 C   0  0  0  0  0  0  0  0  0  0  0  0
    4.0612    1.3447   -0.0664 C   0  0  0  0  0  0  0  0  0  0  0  0
    2.8786    2.0268    0.1189 C   0  0  0  0  0  0  0  0  0  0  0  0
    1.7127    1.2989    0.2134 C   0  0  0  0  0  0  0  0  0  0  0  0
    1.7151   -0.0736    0.1267 C   0  0  0  0  0  0  0  0  0  0  0  0
    0.4654   -0.8378    0.2291 C   0  0  0  0  0  0  0  0  0  0  0  0
    0.1382   -1.6296    1.2569 N   0  0  0  0  0  0  0  0  0  0  0  0
   -1.0684   -2.1678    1.0181 N   0  0  0  0  0  0  0  0  0  0  0  0
   -1.5147   -1.7190   -0.1664 C   0  0  0  0  0  0  0  0  0  0  0  0
   -2.7733   -2.0324   -0.8349 C   0  0  0  0  0  0  0  0  0  0  0  0
   -3.8771   -1.0941   -0.4741 C   0  0  0  0  0  0  0  0  0  0  0  0
   -4.7209   -1.3256    0.5929 C   0  0  0  0  0  0  0  0  0  0  0  0
   -5.7423   -0.4323    0.9060 C   0  0  0  0  0  0  0  0  0  0  0  0
   -5.9467    0.7104    0.1648 C   0  0  0  0  0  0  0  0  0  0  0  0
   -7.0372    1.6651    0.4983 C   0  0  0  0  0  0  0  0  0  0  0  0
   -5.1152    0.9517   -0.8977 C   0  0  0  0  0  0  0  0  0  0  0  0
   -5.3358    2.1901   -1.7020 C   0  0  0  0  0  0  0  0  0  0  0  0
   -4.1000    0.0575   -1.2037 C   0  0  0  0  0  0  0  0  0  0  0  0
   -0.5593   -0.9025   -0.6375 N   0  0  0  0  0  0  0  0  0  0  0  0
    2.9098   -0.7209   -0.0578 C   0  0  0  0  0  0  0  0  0  0  0  0
    6.8472    0.3388    0.5741 H   0  0  0  0  0  0  0  0  0  0  0  0
    7.2608   -0.4648   -0.9782 H   0  0  0  0  0  0  0  0  0  0  0  0
    6.2649    1.0301   -0.9782 H   0  0  0  0  0  0  0  0  0  0  0  0
    4.9999    1.9128   -0.1437 H   0  0  0  0  0  0  0  0  0  0  0  0
    2.8656    3.1244    0.1895 H   0  0  0  0  0  0  0  0  0  0  0  0
    0.7592    1.8270    0.3615 H   0  0  0  0  0  0  0  0  0  0  0  0
   -1.5692   -2.8178    1.6406 H   0  0  0  0  0  0  0  0  0  0  0  0
   -2.6139   -1.9839   -1.9222 H   0  0  0  0  0  0  0  0  0  0  0  0
   -3.0771   -3.0378   -0.5080 H   0  0  0  0  0  0  0  0  0  0  0  0
   -4.5847   -2.2291    1.2053 H   0  0  0  0  0  0  0  0  0  0  0  0
   -6.3992   -0.6436    1.7627 H   0  0  0  0  0  0  0  0  0  0  0  0
   -7.1311    1.7473    1.5912 H   0  0  0  0  0  0  0  0  0  0  0  0
   -6.8020    2.6528    0.0752 H   0  0  0  0  0  0  0  0  0  0  0  0
   -7.9852    1.3013    0.0752 H   0  0  0  0  0  0  0  0  0  0  0  0
   -5.4879    3.0443   -1.0258 H   0  0  0  0  0  0  0  0  0  0  0  0
   -4.4568    2.3767   -2.3364 H   0  0  0  0  0  0  0  0  0  0  0  0
   -6.2252    2.0618   -2.3364 H   0  0  0  0  0  0  0  0  0  0  0  0
   -3.4462    0.2741   -2.0614 H   0  0  0  0  0  0  0  0  0  0  0  0
    2.9197   -1.8186   -0.1281 H   0  0  0  0  0  0  0  0  0  0  0  0
  1  2  1  0
  2  3  1  0
  3  4  2  0
  4  5  1  0
  5  6  2  0
  6  7  1  0
  7  8  1  0
  8  9  2  0
  9 10  1  0
 10 11  1  0
 11 12  1  0
 12 13  1  0
 13 14  2  0
 14 15  1  0
 15 16  2  0
 16 17  1  0
 16 18  1  0
 18 19  1  0
 18 20  2  0
 11 21  2  0
  7 22  2  0
 22  3  1  0
 21  8  1  0
 20 13  1  0
  1 23  1  0
  1 24  1  0
  1 25  1  0
  4 26  1  0
  5 27  1  0
  6 28  1  0
 10 29  1  0
 12 30  1  0
 12 31  1  0
 14 32  1  0
 15 33  1  0
 17 34  1  0
 17 35  1  0
 17 36  1  0
 19 37  1  0
 19 38  1  0
 19 39  1  0
 20 40  1  0
 22 41  1  0
M  END
>  <Original_Name>  (28) 
CHEMBL165760

>  <ROSHAMBO_ComboTanimoto>  (28) 
1.014

>  <ROSHAMBO_ShapeTanimoto>  (28) 
0.752

>  <ROSHAMBO_ColorTanimoto>  (28) 
0.263

>  <ROSHAMBO_FitTverskyCombo>  (28) 
1.397

>  <ROSHAMBO_FitTversky>  (28) 
0.931

>  <ROSHAMBO_FitColorTversky>  (28) 
0.466

>  <ROSHAMBO_RefTverskyCombo>  (28) 
1.172

>  <ROSHAMBO_RefTversky>  (28) 
0.796

>  <ROSHAMBO_RefColorTversky>  (28) 
0.376

>  <ROSHAMBO_Overlap>  (28) 
972.177

$$$$
CHEMBL609603_0_26
     RDKit          3D

 35 37  0  0  0  0  0  0  0  0999 V2000
    1.2661    3.5056    0.3594 N   0  0  0  0  0  0  0  0  0  0  0  0
    1.5261    2.1243    0.2664 C   0  0  0  0  0  0  0  0  0  0  0  0
    0.5131    1.2109    0.1963 N   0  0  0  0  0  0  0  0  0  0  0  0
    0.7686   -0.1131    0.1073 C   0  0  0  0  0  0  0  0  0  0  0  0
   -0.3147   -1.0831    0.0323 C   0  0  0  0  0  0  0  0  0  0  0  0
   -0.0249   -2.2977   -0.0473 O   0  0  0  0  0  0  0  0  0  0  0  0
   -1.6530   -0.6794    0.0479 N   0  0  0  0  0  0  0  0  0  0  0  0
   -2.7795   -1.6139   -0.0251 C   0  0  0  0  0  0  0  0  0  0  0  0
   -4.0513   -0.8391    0.0139 C   0  0  0  0  0  0  0  0  0  0  0  0
   -4.8145   -0.7892    1.1547 C   0  0  0  0  0  0  0  0  0  0  0  0
   -6.0027   -0.0789    1.2293 C   0  0  0  0  0  0  0  0  0  0  0  0
   -6.4609    0.6148    0.1291 C   0  0  0  0  0  0  0  0  0  0  0  0
   -5.6981    0.5784   -1.0469 C   0  0  0  0  0  0  0  0  0  0  0  0
   -4.5245   -0.1411   -1.0731 C   0  0  0  0  0  0  0  0  0  0  0  0
   -3.5855   -0.1762   -2.5481 Cl  0  0  0  0  0  0  0  0  0  0  0  0
    2.0608   -0.4909    0.0907 N   0  0  0  0  0  0  0  0  0  0  0  0
    3.0736    0.3851    0.1582 C   0  0  0  0  0  0  0  0  0  0  0  0
    4.4760   -0.0122    0.1403 C   0  0  0  0  0  0  0  0  0  0  0  0
    5.5735    0.6751   -0.3499 C   0  0  0  0  0  0  0  0  0  0  0  0
    6.6981   -0.0989   -0.1470 C   0  0  0  0  0  0  0  0  0  0  0  0
    6.2225   -1.2448    0.4698 C   0  0  0  0  0  0  0  0  0  0  0  0
    4.9205   -1.1353    0.6101 O   0  0  0  0  0  0  0  0  0  0  0  0
    2.7892    1.6893    0.2457 N   0  0  0  0  0  0  0  0  0  0  0  0
    2.0477    4.1744    0.4110 H   0  0  0  0  0  0  0  0  0  0  0  0
    0.2944    3.8468    0.3758 H   0  0  0  0  0  0  0  0  0  0  0  0
   -1.8581    0.3278    0.1143 H   0  0  0  0  0  0  0  0  0  0  0  0
   -2.7243   -2.1865   -0.9627 H   0  0  0  0  0  0  0  0  0  0  0  0
   -2.7414   -2.3114    0.8247 H   0  0  0  0  0  0  0  0  0  0  0  0
   -4.4690   -1.3350    2.0451 H   0  0  0  0  0  0  0  0  0  0  0  0
   -6.5797   -0.0687    2.1658 H   0  0  0  0  0  0  0  0  0  0  0  0
   -7.4018    1.1829    0.1729 H   0  0  0  0  0  0  0  0  0  0  0  0
   -6.0351    1.1209   -1.9425 H   0  0  0  0  0  0  0  0  0  0  0  0
    5.5527    1.6690   -0.8208 H   0  0  0  0  0  0  0  0  0  0  0  0
    7.7379    0.1401   -0.4148 H   0  0  0  0  0  0  0  0  0  0  0  0
    6.8327   -2.1027    0.7886 H   0  0  0  0  0  0  0  0  0  0  0  0
  1  2  1  0
  2  3  2  0
  3  4  1  0
  4  5  1  0
  5  6  2  0
  5  7  1  0
  7  8  1  0
  8  9  1  0
  9 10  2  0
 10 11  1  0
 11 12  2  0
 12 13  1  0
 13 14  2  0
 14 15  1  0
  4 16  2  0
 16 17  1  0
 17 18  1  0
 18 19  2  0
 19 20  1  0
 20 21  2  0
 21 22  1  0
 17 23  2  0
 23  2  1  0
 14  9  1  0
 22 18  1  0
  1 24  1  0
  1 25  1  0
  7 26  1  0
  8 27  1  0
  8 28  1  0
 10 29  1  0
 11 30  1  0
 12 31  1  0
 13 32  1  0
 19 33  1  0
 20 34  1  0
 21 35  1  0
M  END
>  <Original_Name>  (29) 
CHEMBL609603

>  <ROSHAMBO_ComboTanimoto>  (29) 
1.007

>  <ROSHAMBO_ShapeTanimoto>  (29) 
0.733

>  <ROSHAMBO_ColorTanimoto>  (29) 
0.274

>  <ROSHAMBO_FitTverskyCombo>  (29) 
1.376

>  <ROSHAMBO_FitTversky>  (29) 
0.896

>  <ROSHAMBO_FitColorTversky>  (29) 
0.479

>  <ROSHAMBO_RefTverskyCombo>  (29) 
1.192

>  <ROSHAMBO_RefTversky>  (29) 
0.801

>  <ROSHAMBO_RefColorTversky>  (29) 
0.391

>  <ROSHAMBO_Overlap>  (29) 
979.345

$$$$
CHEMBL426530_0_97
     RDKit          3D

 38 40  0  0  0  0  0  0  0  0999 V2000
   -8.2443    1.2291   -0.0464 C   0  0  0  0  0  0  0  0  0  0  0  0
   -7.0673    0.6988   -0.0273 O   0  0  0  0  0  0  0  0  0  0  0  0
   -5.8876    0.1977   -0.0267 C   0  0  0  0  0  0  0  0  0  0  0  0
   -5.5914   -1.0073    0.6299 C   0  0  0  0  0  0  0  0  0  0  0  0
   -4.3561   -1.5686    0.6528 C   0  0  0  0  0  0  0  0  0  0  0  0
   -3.3340   -0.9364    0.0046 C   0  0  0  0  0  0  0  0  0  0  0  0
   -3.6071    0.2364   -0.6383 C   0  0  0  0  0  0  0  0  0  0  0  0
   -4.8198    0.7792   -0.6557 N   0  0  0  0  0  0  0  0  0  0  0  0
   -2.0159   -1.5454    0.0330 C   0  0  0  0  0  0  0  0  0  0  0  0
   -1.9204   -2.9160    0.0771 C   0  0  0  0  0  0  0  0  0  0  0  0
   -0.6699   -3.5272    0.1053 C   0  0  0  0  0  0  0  0  0  0  0  0
    0.4400   -2.7138    0.0873 C   0  0  0  0  0  0  0  0  0  0  0  0
    0.3906   -1.3357    0.0434 C   0  0  0  0  0  0  0  0  0  0  0  0
   -0.8820   -0.7786    0.0168 C   0  0  0  0  0  0  0  0  0  0  0  0
    1.5731   -0.4940    0.0245 C   0  0  0  0  0  0  0  0  0  0  0  0
    1.4183    0.8375   -0.0184 N   0  0  0  0  0  0  0  0  0  0  0  0
    2.4788    1.6868   -0.0392 C   0  0  0  0  0  0  0  0  0  0  0  0
    2.2476    3.1041   -0.0847 N   0  0  0  0  0  0  0  0  0  0  0  0
    3.7228    1.2059   -0.0169 N   0  0  0  0  0  0  0  0  0  0  0  0
    3.8966   -0.1230    0.0260 C   0  0  0  0  0  0  0  0  0  0  0  0
    5.5593   -0.7549    0.0552 S   0  0  0  0  0  0  0  0  0  0  0  0
    6.7645    0.5770    0.0192 C   0  0  0  0  0  0  0  0  0  0  0  0
    2.8371   -0.9520    0.0461 N   0  0  0  0  0  0  0  0  0  0  0  0
   -8.5926    1.3860    0.9851 H   0  0  0  0  0  0  0  0  0  0  0  0
   -8.2027    2.1955   -0.5703 H   0  0  0  0  0  0  0  0  0  0  0  0
   -8.9406    0.5577   -0.5703 H   0  0  0  0  0  0  0  0  0  0  0  0
   -6.4067   -1.5258    1.1556 H   0  0  0  0  0  0  0  0  0  0  0  0
   -4.1814   -2.5159    1.1840 H   0  0  0  0  0  0  0  0  0  0  0  0
   -2.7901    0.7531   -1.1633 H   0  0  0  0  0  0  0  0  0  0  0  0
   -2.8328   -3.5303    0.0901 H   0  0  0  0  0  0  0  0  0  0  0  0
   -0.5723   -4.6222    0.1407 H   0  0  0  0  0  0  0  0  0  0  0  0
    1.4299   -3.1930    0.1095 H   0  0  0  0  0  0  0  0  0  0  0  0
   -0.9818    0.3163   -0.0186 H   0  0  0  0  0  0  0  0  0  0  0  0
    3.0451    3.7557   -0.1007 H   0  0  0  0  0  0  0  0  0  0  0  0
    1.2844    3.4685   -0.1013 H   0  0  0  0  0  0  0  0  0  0  0  0
    7.0244    0.8642    1.0487 H   0  0  0  0  0  0  0  0  0  0  0  0
    7.6695    0.2385   -0.5066 H   0  0  0  0  0  0  0  0  0  0  0  0
    6.3375    1.4438   -0.5066 H   0  0  0  0  0  0  0  0  0  0  0  0
  1  2  1  0
  2  3  1  0
  3  4  2  0
  4  5  1  0
  5  6  2  0
  6  7  1  0
  7  8  2  0
  6  9  1  0
  9 10  2  0
 10 11  1  0
 11 12  2  0
 12 13  1  0
 13 14  2  0
 13 15  1  0
 15 16  2  0
 16 17  1  0
 17 18  1  0
 17 19  2  0
 19 20  1  0
 20 21  1  0
 21 22  1  0
 20 23  2  0
  8  3  1  0
 14  9  1  0
 23 15  1  0
  1 24  1  0
  1 25  1  0
  1 26  1  0
  4 27  1  0
  5 28  1  0
  7 29  1  0
 10 30  1  0
 11 31  1  0
 12 32  1  0
 14 33  1  0
 18 34  1  0
 18 35  1  0
 22 36  1  0
 22 37  1  0
 22 38  1  0
M  END
>  <Original_Name>  (30) 
CHEMBL426530

>  <ROSHAMBO_ComboTanimoto>  (30) 
1.0

>  <ROSHAMBO_ShapeTanimoto>  (30) 
0.731

>  <ROSHAMBO_ColorTanimoto>  (30) 
0.268

>  <ROSHAMBO_FitTverskyCombo>  (30) 
1.334

>  <ROSHAMBO_FitTversky>  (30) 
0.9

>  <ROSHAMBO_FitColorTversky>  (30) 
0.435

>  <ROSHAMBO_RefTverskyCombo>  (30) 
1.209

>  <ROSHAMBO_RefTversky>  (30) 
0.797

>  <ROSHAMBO_RefColorTversky>  (30) 
0.412

>  <ROSHAMBO_Overlap>  (30) 
974.025

$$$$
CHEMBL85549_0_81
     RDKit          3D

 48 51  0  0  0  0  0  0  0  0999 V2000
   -6.0250    0.8981    0.0329 O   0  0  0  0  0  0  0  0  0  0  0  0
   -5.5758   -0.3869    0.2095 C   0  0  0  0  0  0  0  0  0  0  0  0
   -4.2269   -0.6300   -0.4370 C   0  0  1  0  0  0  0  0  0  0  0  0
   -3.2312    0.1714    0.0444 O   0  0  0  0  0  0  0  0  0  0  0  0
   -2.2168   -0.5998    0.5445 C   0  0  0  0  0  0  0  0  0  0  0  0
   -0.9239   -0.0159    0.4720 N   0  0  0  0  0  0  0  0  0  0  0  0
   -0.6295    1.2736    0.6313 C   0  0  0  0  0  0  0  0  0  0  0  0
    0.6907    1.4761    0.4975 N   0  0  0  0  0  0  0  0  0  0  0  0
    1.2300    0.2826    0.2488 C   0  0  0  0  0  0  0  0  0  0  0  0
    2.5596   -0.0908    0.0263 C   0  0  0  0  0  0  0  0  0  0  0  0
    3.5925    0.8766    0.0378 N   0  0  0  0  0  0  0  0  0  0  0  0
    4.9551    0.4939   -0.1789 C   0  0  0  0  0  0  0  0  0  0  0  0
    5.8343    1.7356   -0.1968 C   0  0  0  0  0  0  0  0  0  0  0  0
    7.2962    1.3639   -0.3090 C   0  0  0  0  0  0  0  0  0  0  0  0
    7.7109    0.2849    0.6372 C   0  0  0  0  0  0  0  0  0  0  0  0
    6.7726   -0.9151    0.6092 C   0  0  0  0  0  0  0  0  0  0  0  0
    5.4029   -0.3977    0.9836 C   0  0  0  0  0  0  0  0  0  0  0  0
    2.7797   -1.3962   -0.1995 N   0  0  0  0  0  0  0  0  0  0  0  0
    1.8054   -2.3201   -0.2185 C   0  0  0  0  0  0  0  0  0  0  0  0
    0.5454   -1.9565   -0.0061 N   0  0  0  0  0  0  0  0  0  0  0  0
    0.2276   -0.6581    0.2308 C   0  0  0  0  0  0  0  0  0  0  0  0
   -2.2962   -1.9282   -0.2144 C   0  0  2  0  0  0  0  0  0  0  0  0
   -1.7507   -1.7270   -1.4659 O   0  0  0  0  0  0  0  0  0  0  0  0
   -3.8145   -2.0623   -0.2992 C   0  0  2  0  0  0  0  0  0  0  0  0
   -4.2169   -2.8247   -1.3735 O   0  0  0  0  0  0  0  0  0  0  0  0
   -6.1726    1.3204    0.9160 H   0  0  0  0  0  0  0  0  0  0  0  0
   -5.4895   -0.5841    1.2882 H   0  0  0  0  0  0  0  0  0  0  0  0
   -6.3004   -1.0607   -0.2711 H   0  0  0  0  0  0  0  0  0  0  0  0
   -4.3663   -0.3746   -1.4979 H   0  0  0  0  0  0  0  0  0  0  0  0
   -2.3563   -0.7273    1.6282 H   0  0  0  0  0  0  0  0  0  0  0  0
   -1.3660    2.0628    0.8431 H   0  0  0  0  0  0  0  0  0  0  0  0
    3.3615    1.8666    0.2038 H   0  0  0  0  0  0  0  0  0  0  0  0
    5.0421   -0.0404   -1.1365 H   0  0  0  0  0  0  0  0  0  0  0  0
    5.5553    2.3614   -1.0573 H   0  0  0  0  0  0  0  0  0  0  0  0
    5.6839    2.2848    0.7444 H   0  0  0  0  0  0  0  0  0  0  0  0
    7.4902    1.0202   -1.3358 H   0  0  0  0  0  0  0  0  0  0  0  0
    7.8788    2.2610   -0.0523 H   0  0  0  0  0  0  0  0  0  0  0  0
    8.7218   -0.0526    0.3647 H   0  0  0  0  0  0  0  0  0  0  0  0
    7.6821    0.7052    1.6533 H   0  0  0  0  0  0  0  0  0  0  0  0
    6.7499   -1.3563   -0.3982 H   0  0  0  0  0  0  0  0  0  0  0  0
    7.1066   -1.6974    1.3066 H   0  0  0  0  0  0  0  0  0  0  0  0
    4.7013   -1.2346    1.1154 H   0  0  0  0  0  0  0  0  0  0  0  0
    5.4283    0.1595    1.9317 H   0  0  0  0  0  0  0  0  0  0  0  0
    2.0500   -3.3754   -0.4094 H   0  0  0  0  0  0  0  0  0  0  0  0
   -1.7823   -2.7964    0.2239 H   0  0  0  0  0  0  0  0  0  0  0  0
   -0.8260   -1.3860   -1.3718 H   0  0  0  0  0  0  0  0  0  0  0  0
   -4.2643   -2.5798    0.5610 H   0  0  0  0  0  0  0  0  0  0  0  0
   -4.6531   -3.6512   -1.0468 H   0  0  0  0  0  0  0  0  0  0  0  0
  1  2  1  0
  2  3  1  0
  3  4  1  0
  4  5  1  0
  5  6  1  0
  6  7  1  0
  7  8  2  0
  8  9  1  0
  9 10  2  0
 10 11  1  0
 11 12  1  0
 12 13  1  0
 13 14  1  0
 14 15  1  0
 15 16  1  0
 16 17  1  0
 10 18  1  0
 18 19  2  0
 19 20  1  0
 20 21  2  0
  5 22  1  0
 22 23  1  0
 22 24  1  0
 24 25  1  0
 24  3  1  0
 21  6  1  0
 21  9  1  0
 17 12  1  0
  1 26  1  0
  2 27  1  0
  2 28  1  0
  3 29  1  6
  5 30  1  0
  7 31  1  0
 11 32  1  0
 12 33  1  0
 13 34  1  0
 13 35  1  0
 14 36  1  0
 14 37  1  0
 15 38  1  0
 15 39  1  0
 16 40  1  0
 16 41  1  0
 17 42  1  0
 17 43  1  0
 19 44  1  0
 22 45  1  1
 23 46  1  0
 24 47  1  1
 25 48  1  0
M  END
>  <Original_Name>  (31) 
CHEMBL85549

>  <ROSHAMBO_ComboTanimoto>  (31) 
0.987

>  <ROSHAMBO_ShapeTanimoto>  (31) 
0.74

>  <ROSHAMBO_ColorTanimoto>  (31) 
0.247

>  <ROSHAMBO_FitTverskyCombo>  (31) 
1.215

>  <ROSHAMBO_FitTversky>  (31) 
0.86

>  <ROSHAMBO_FitColorTversky>  (31) 
0.355

>  <ROSHAMBO_RefTverskyCombo>  (31) 
1.289

>  <ROSHAMBO_RefTversky>  (31) 
0.842

>  <ROSHAMBO_RefColorTversky>  (31) 
0.448

>  <ROSHAMBO_Overlap>  (31) 
1034.337

$$$$
CHEMBL571672_0_12
     RDKit          3D

 35 37  0  0  0  0  0  0  0  0999 V2000
    1.1854    3.4346    0.1024 N   0  0  0  0  0  0  0  0  0  0  0  0
    1.4329    2.0377    0.0668 C   0  0  0  0  0  0  0  0  0  0  0  0
    0.4236    1.1498    0.0569 N   0  0  0  0  0  0  0  0  0  0  0  0
    0.6099   -0.1794    0.0236 C   0  0  0  0  0  0  0  0  0  0  0  0
   -0.5373   -1.0607    0.0153 C   0  0  0  0  0  0  0  0  0  0  0  0
   -0.3497   -2.3046   -0.0161 O   0  0  0  0  0  0  0  0  0  0  0  0
   -1.8531   -0.5305    0.0421 N   0  0  0  0  0  0  0  0  0  0  0  0
   -3.0269   -1.3973    0.0345 C   0  0  0  0  0  0  0  0  0  0  0  0
   -4.2744   -0.6315    0.0666 C   0  0  0  0  0  0  0  0  0  0  0  0
   -4.8351   -0.2661   -1.1548 C   0  0  0  0  0  0  0  0  0  0  0  0
   -6.0082    0.4559   -1.2349 C   0  0  0  0  0  0  0  0  0  0  0  0
   -6.6274    0.8161   -0.0581 C   0  0  0  0  0  0  0  0  0  0  0  0
   -6.0670    0.4518    1.1167 N   0  0  0  0  0  0  0  0  0  0  0  0
   -4.9290   -0.2488    1.2057 C   0  0  0  0  0  0  0  0  0  0  0  0
    1.9151   -0.6226   -0.0010 C   0  0  0  0  0  0  0  0  0  0  0  0
    2.9790    0.2548    0.0081 C   0  0  0  0  0  0  0  0  0  0  0  0
    4.3640   -0.2009   -0.0176 C   0  0  0  0  0  0  0  0  0  0  0  0
    4.7976   -1.5233   -0.0534 C   0  0  0  0  0  0  0  0  0  0  0  0
    6.1743   -1.5054   -0.0679 C   0  0  0  0  0  0  0  0  0  0  0  0
    6.5347   -0.1770   -0.0406 C   0  0  0  0  0  0  0  0  0  0  0  0
    5.4462    0.5329   -0.0122 O   0  0  0  0  0  0  0  0  0  0  0  0
    2.6955    1.5567    0.0418 N   0  0  0  0  0  0  0  0  0  0  0  0
    1.9739    4.0973    0.1094 H   0  0  0  0  0  0  0  0  0  0  0  0
    0.2173    3.7857    0.1212 H   0  0  0  0  0  0  0  0  0  0  0  0
   -1.9829    0.4910    0.0677 H   0  0  0  0  0  0  0  0  0  0  0  0
   -3.0098   -2.0102   -0.8788 H   0  0  0  0  0  0  0  0  0  0  0  0
   -2.9908   -2.0261    0.9363 H   0  0  0  0  0  0  0  0  0  0  0  0
   -4.3271   -0.5623   -2.0844 H   0  0  0  0  0  0  0  0  0  0  0  0
   -6.4361    0.7354   -2.2089 H   0  0  0  0  0  0  0  0  0  0  0  0
   -7.5645    1.3920   -0.0743 H   0  0  0  0  0  0  0  0  0  0  0  0
   -4.5217   -0.5159    2.1920 H   0  0  0  0  0  0  0  0  0  0  0  0
    2.1131   -1.7042   -0.0286 H   0  0  0  0  0  0  0  0  0  0  0  0
    4.1579   -2.4180   -0.0674 H   0  0  0  0  0  0  0  0  0  0  0  0
    6.8481   -2.3744   -0.0956 H   0  0  0  0  0  0  0  0  0  0  0  0
    7.5626    0.2146   -0.0426 H   0  0  0  0  0  0  0  0  0  0  0  0
  1  2  1  0
  2  3  2  0
  3  4  1  0
  4  5  1  0
  5  6  2  0
  5  7  1  0
  7  8  1  0
  8  9  1  0
  9 10  2  0
 10 11  1  0
 11 12  2  0
 12 13  1  0
 13 14  2  0
  4 15  2  0
 15 16  1  0
 16 17  1  0
 17 18  2  0
 18 19  1  0
 19 20  2  0
 20 21  1  0
 16 22  2  0
 22  2  1  0
 14  9  1  0
 21 17  1  0
  1 23  1  0
  1 24  1  0
  7 25  1  0
  8 26  1  0
  8 27  1  0
 10 28  1  0
 11 29  1  0
 12 30  1  0
 14 31  1  0
 15 32  1  0
 18 33  1  0
 19 34  1  0
 20 35  1  0
M  END
>  <Original_Name>  (32) 
CHEMBL571672

>  <ROSHAMBO_ComboTanimoto>  (32) 
0.968

>  <ROSHAMBO_ShapeTanimoto>  (32) 
0.72

>  <ROSHAMBO_ColorTanimoto>  (32) 
0.248

>  <ROSHAMBO_FitTverskyCombo>  (32) 
1.369

>  <ROSHAMBO_FitTversky>  (32) 
0.902

>  <ROSHAMBO_FitColorTversky>  (32) 
0.467

>  <ROSHAMBO_RefTverskyCombo>  (32) 
1.127

>  <ROSHAMBO_RefTversky>  (32) 
0.781

>  <ROSHAMBO_RefColorTversky>  (32) 
0.347

>  <ROSHAMBO_Overlap>  (32) 
953.916

$$$$
CHEMBL558291_0_30
     RDKit          3D

 33 35  0  0  0  0  0  0  0  0999 V2000
    0.6718    3.3785    0.6456 N   0  0  0  0  0  0  0  0  0  0  0  0
    1.0661    2.0295    0.4318 C   0  0  0  0  0  0  0  0  0  0  0  0
    0.0891    1.1294    0.2464 N   0  0  0  0  0  0  0  0  0  0  0  0
    0.3205   -0.1753    0.0344 C   0  0  0  0  0  0  0  0  0  0  0  0
   -0.7924   -1.0966   -0.1592 C   0  0  0  0  0  0  0  0  0  0  0  0
   -0.6099   -2.3213   -0.3594 O   0  0  0  0  0  0  0  0  0  0  0  0
   -2.1253   -0.6086   -0.1228 N   0  0  0  0  0  0  0  0  0  0  0  0
   -3.2842   -1.4205   -0.2995 C   0  0  0  0  0  0  0  0  0  0  0  0
   -4.4968   -0.5884   -0.2010 C   0  0  0  0  0  0  0  0  0  0  0  0
   -5.2489   -0.2768    0.9090 C   0  0  0  0  0  0  0  0  0  0  0  0
   -6.2841    0.5314    0.4912 C   0  0  0  0  0  0  0  0  0  0  0  0
   -6.1200    0.6804   -0.8640 C   0  0  0  0  0  0  0  0  0  0  0  0
   -5.0568    0.0033   -1.2196 O   0  0  0  0  0  0  0  0  0  0  0  0
    1.6346   -0.5825    0.0109 C   0  0  0  0  0  0  0  0  0  0  0  0
    2.6659    0.3118    0.1971 C   0  0  0  0  0  0  0  0  0  0  0  0
    4.0707   -0.1243    0.1719 C   0  0  0  0  0  0  0  0  0  0  0  0
    4.4626   -1.4240   -0.0337 C   0  0  0  0  0  0  0  0  0  0  0  0
    5.8373   -1.4470    0.0097 C   0  0  0  0  0  0  0  0  0  0  0  0
    6.2198   -0.1347    0.2441 C   0  0  0  0  0  0  0  0  0  0  0  0
    5.1395    0.5960    0.3301 O   0  0  0  0  0  0  0  0  0  0  0  0
    2.3346    1.6045    0.4037 N   0  0  0  0  0  0  0  0  0  0  0  0
    1.3855    4.1065    0.7929 H   0  0  0  0  0  0  0  0  0  0  0  0
   -0.3275    3.6280    0.6533 H   0  0  0  0  0  0  0  0  0  0  0  0
   -2.2643    0.3985    0.0422 H   0  0  0  0  0  0  0  0  0  0  0  0
   -3.2482   -1.8975   -1.2901 H   0  0  0  0  0  0  0  0  0  0  0  0
   -3.3092   -2.1928    0.4833 H   0  0  0  0  0  0  0  0  0  0  0  0
   -5.0588   -0.6112    1.9395 H   0  0  0  0  0  0  0  0  0  0  0  0
   -7.0783    0.9674    1.1150 H   0  0  0  0  0  0  0  0  0  0  0  0
   -6.7677    1.2657   -1.5333 H   0  0  0  0  0  0  0  0  0  0  0  0
    1.8666   -1.6441   -0.1601 H   0  0  0  0  0  0  0  0  0  0  0  0
    3.8007   -2.2863   -0.2019 H   0  0  0  0  0  0  0  0  0  0  0  0
    6.4938   -2.3208   -0.1151 H   0  0  0  0  0  0  0  0  0  0  0  0
    7.2537    0.2284    0.3409 H   0  0  0  0  0  0  0  0  0  0  0  0
  1  2  1  0
  2  3  2  0
  3  4  1  0
  4  5  1  0
  5  6  2  0
  5  7  1  0
  7  8  1  0
  8  9  1  0
  9 10  2  0
 10 11  1  0
 11 12  2  0
 12 13  1  0
  4 14  2  0
 14 15  1  0
 15 16  1  0
 16 17  2  0
 17 18  1  0
 18 19  2  0
 19 20  1  0
 15 21  2  0
 21  2  1  0
 13  9  1  0
 20 16  1  0
  1 22  1  0
  1 23  1  0
  7 24  1  0
  8 25  1  0
  8 26  1  0
 10 27  1  0
 11 28  1  0
 12 29  1  0
 14 30  1  0
 17 31  1  0
 18 32  1  0
 19 33  1  0
M  END
>  <Original_Name>  (33) 
CHEMBL558291

>  <ROSHAMBO_ComboTanimoto>  (33) 
0.962

>  <ROSHAMBO_ShapeTanimoto>  (33) 
0.718

>  <ROSHAMBO_ColorTanimoto>  (33) 
0.244

>  <ROSHAMBO_FitTverskyCombo>  (33) 
1.398

>  <ROSHAMBO_FitTversky>  (33) 
0.917

>  <ROSHAMBO_FitColorTversky>  (33) 
0.481

>  <ROSHAMBO_RefTverskyCombo>  (33) 
1.099

>  <ROSHAMBO_RefTversky>  (33) 
0.768

>  <ROSHAMBO_RefColorTversky>  (33) 
0.331

>  <ROSHAMBO_Overlap>  (33) 
936.878

$$$$
CHEMBL564473_0_10
     RDKit          3D

 42 44  0  0  0  0  0  0  0  0999 V2000
   -7.9484   -0.3188    0.1871 C   0  0  0  0  0  0  0  0  0  0  0  0
   -7.3399    0.9224    0.2392 O   0  0  0  0  0  0  0  0  0  0  0  0
   -6.1022    0.9177    0.8452 C   0  0  0  0  0  0  0  0  0  0  0  0
   -5.1212    0.0915    0.0957 C   0  0  0  0  0  0  0  0  0  0  0  0
   -5.3531   -0.1502   -1.2396 C   0  0  0  0  0  0  0  0  0  0  0  0
   -4.4455   -0.9070   -1.9794 C   0  0  0  0  0  0  0  0  0  0  0  0
   -3.3454   -1.3828   -1.3327 C   0  0  0  0  0  0  0  0  0  0  0  0
   -3.1417   -1.1244    0.0006 C   0  0  0  0  0  0  0  0  0  0  0  0
   -1.9008   -1.6764    0.6344 C   0  0  0  0  0  0  0  0  0  0  0  0
   -0.8675   -0.6446    0.4549 N   0  0  0  0  0  0  0  0  0  0  0  0
    0.4949   -1.0418    0.3719 C   0  0  0  0  0  0  0  0  0  0  0  0
    0.7771   -2.2565    0.4612 O   0  0  0  0  0  0  0  0  0  0  0  0
    1.5667   -0.0445    0.1846 C   0  0  0  0  0  0  0  0  0  0  0  0
    2.8766   -0.4508    0.1855 C   0  0  0  0  0  0  0  0  0  0  0  0
    3.8657    0.5062    0.0270 C   0  0  0  0  0  0  0  0  0  0  0  0
    5.2843    0.1193    0.0385 C   0  0  0  0  0  0  0  0  0  0  0  0
    5.8207   -1.1342    0.2273 C   0  0  0  0  0  0  0  0  0  0  0  0
    7.1996   -1.0426    0.1627 C   0  0  0  0  0  0  0  0  0  0  0  0
    7.4285    0.3030   -0.0684 C   0  0  0  0  0  0  0  0  0  0  0  0
    6.2697    0.9531   -0.1346 O   0  0  0  0  0  0  0  0  0  0  0  0
    3.5067    1.7883   -0.1226 N   0  0  0  0  0  0  0  0  0  0  0  0
    2.2318    2.1861   -0.1238 C   0  0  0  0  0  0  0  0  0  0  0  0
    1.9148    3.5652   -0.2853 N   0  0  0  0  0  0  0  0  0  0  0  0
    1.2501    1.2681    0.0304 N   0  0  0  0  0  0  0  0  0  0  0  0
   -4.0150   -0.3965    0.7150 N   0  0  0  0  0  0  0  0  0  0  0  0
   -8.1269   -0.6829    1.2097 H   0  0  0  0  0  0  0  0  0  0  0  0
   -8.9076   -0.2349   -0.3448 H   0  0  0  0  0  0  0  0  0  0  0  0
   -7.2947   -1.0257   -0.3448 H   0  0  0  0  0  0  0  0  0  0  0  0
   -5.7290    1.9510    0.8994 H   0  0  0  0  0  0  0  0  0  0  0  0
   -6.2162    0.4838    1.8495 H   0  0  0  0  0  0  0  0  0  0  0  0
   -6.2549    0.2539   -1.7229 H   0  0  0  0  0  0  0  0  0  0  0  0
   -4.6119   -1.1123   -3.0472 H   0  0  0  0  0  0  0  0  0  0  0  0
   -2.6090   -1.9834   -1.8868 H   0  0  0  0  0  0  0  0  0  0  0  0
   -2.0696   -1.8678    1.7044 H   0  0  0  0  0  0  0  0  0  0  0  0
   -1.6032   -2.6319    0.1779 H   0  0  0  0  0  0  0  0  0  0  0  0
   -1.1272    0.3500    0.3904 H   0  0  0  0  0  0  0  0  0  0  0  0
    3.1360   -1.5126    0.3092 H   0  0  0  0  0  0  0  0  0  0  0  0
    5.2474   -2.0568    0.4010 H   0  0  0  0  0  0  0  0  0  0  0  0
    7.9399   -1.8491    0.2698 H   0  0  0  0  0  0  0  0  0  0  0  0
    8.4202    0.7656   -0.1805 H   0  0  0  0  0  0  0  0  0  0  0  0
    0.9312    3.8709   -0.2861 H   0  0  0  0  0  0  0  0  0  0  0  0
    2.6691    4.2569   -0.4012 H   0  0  0  0  0  0  0  0  0  0  0  0
  1  2  1  0
  2  3  1  0
  3  4  1  0
  4  5  2  0
  5  6  1  0
  6  7  2  0
  7  8  1  0
  8  9  1  0
  9 10  1  0
 10 11  1  0
 11 12  2  0
 11 13  1  0
 13 14  2  0
 14 15  1  0
 15 16  1  0
 16 17  2  0
 17 18  1  0
 18 19  2  0
 19 20  1  0
 15 21  2  0
 21 22  1  0
 22 23  1  0
 22 24  2  0
  8 25  2  0
 25  4  1  0
 24 13  1  0
 20 16  1  0
  1 26  1  0
  1 27  1  0
  1 28  1  0
  3 29  1  0
  3 30  1  0
  5 31  1  0
  6 32  1  0
  7 33  1  0
  9 34  1  0
  9 35  1  0
 10 36  1  0
 14 37  1  0
 17 38  1  0
 18 39  1  0
 19 40  1  0
 23 41  1  0
 23 42  1  0
M  END
>  <Original_Name>  (34) 
CHEMBL564473

>  <ROSHAMBO_ComboTanimoto>  (34) 
0.957

>  <ROSHAMBO_ShapeTanimoto>  (34) 
0.728

>  <ROSHAMBO_ColorTanimoto>  (34) 
0.23

>  <ROSHAMBO_FitTverskyCombo>  (34) 
1.264

>  <ROSHAMBO_FitTversky>  (34) 
0.858

>  <ROSHAMBO_FitColorTversky>  (34) 
0.406

>  <ROSHAMBO_RefTverskyCombo>  (34) 
1.173

>  <ROSHAMBO_RefTversky>  (34) 
0.827

>  <ROSHAMBO_RefColorTversky>  (34) 
0.346

>  <ROSHAMBO_Overlap>  (34) 
1015.794

$$$$
CHEMBL85549_0_8
     RDKit          3D

 48 51  0  0  0  0  0  0  0  0999 V2000
    6.7088    1.3738   -0.7369 O   0  0  0  0  0  0  0  0  0  0  0  0
    5.5233    1.8428   -0.1445 C   0  0  0  0  0  0  0  0  0  0  0  0
    4.8188    0.6124    0.4028 C   0  0  1  0  0  0  0  0  0  0  0  0
    3.6333    0.9209    1.0166 O   0  0  0  0  0  0  0  0  0  0  0  0
    2.7952   -0.1573    0.9359 C   0  0  0  0  0  0  0  0  0  0  0  0
    1.4601    0.2961    0.6514 N   0  0  0  0  0  0  0  0  0  0  0  0
    1.0464    1.5657    0.6383 C   0  0  0  0  0  0  0  0  0  0  0  0
   -0.2697    1.5983    0.3307 N   0  0  0  0  0  0  0  0  0  0  0  0
   -0.6958    0.3428    0.1470 C   0  0  0  0  0  0  0  0  0  0  0  0
   -1.9445   -0.1409   -0.1789 C   0  0  0  0  0  0  0  0  0  0  0  0
   -3.0623    0.7165   -0.3853 N   0  0  0  0  0  0  0  0  0  0  0  0
   -4.3755    0.2118   -0.7274 C   0  0  0  0  0  0  0  0  0  0  0  0
   -4.8126   -0.6872    0.3825 C   0  0  0  0  0  0  0  0  0  0  0  0
   -6.2869   -0.8721    0.4927 C   0  0  0  0  0  0  0  0  0  0  0  0
   -6.8860    0.5149    0.6722 C   0  0  0  0  0  0  0  0  0  0  0  0
   -6.6820    1.2327   -0.6337 C   0  0  0  0  0  0  0  0  0  0  0  0
   -5.2645    1.3325   -1.0646 C   0  0  0  0  0  0  0  0  0  0  0  0
   -2.0549   -1.4846   -0.2940 N   0  0  0  0  0  0  0  0  0  0  0  0
   -0.9925   -2.2896   -0.0974 C   0  0  0  0  0  0  0  0  0  0  0  0
    0.2250   -1.8118    0.2208 N   0  0  0  0  0  0  0  0  0  0  0  0
    0.4014   -0.4656    0.3516 C   0  0  0  0  0  0  0  0  0  0  0  0
    3.2445   -1.0044   -0.2327 C   0  0  2  0  0  0  0  0  0  0  0  0
    3.5357   -2.2928    0.1435 O   0  0  0  0  0  0  0  0  0  0  0  0
    4.4448   -0.2642   -0.7743 C   0  0  2  0  0  0  0  0  0  0  0  0
    5.4897   -1.0907   -1.1164 O   0  0  0  0  0  0  0  0  0  0  0  0
    7.3529    1.1190   -0.0295 H   0  0  0  0  0  0  0  0  0  0  0  0
    5.7540    2.5458    0.6695 H   0  0  0  0  0  0  0  0  0  0  0  0
    4.8941    2.3808   -0.8689 H   0  0  0  0  0  0  0  0  0  0  0  0
    5.4979    0.1350    1.1246 H   0  0  0  0  0  0  0  0  0  0  0  0
    2.8142   -0.7200    1.8809 H   0  0  0  0  0  0  0  0  0  0  0  0
    1.6755    2.4441    0.8447 H   0  0  0  0  0  0  0  0  0  0  0  0
   -2.9319    1.7336   -0.2875 H   0  0  0  0  0  0  0  0  0  0  0  0
   -4.3870   -0.4062   -1.6373 H   0  0  0  0  0  0  0  0  0  0  0  0
   -4.3547   -1.6747    0.2236 H   0  0  0  0  0  0  0  0  0  0  0  0
   -4.4903   -0.2048    1.3171 H   0  0  0  0  0  0  0  0  0  0  0  0
   -6.6802   -1.3401   -0.4218 H   0  0  0  0  0  0  0  0  0  0  0  0
   -6.5427   -1.5276    1.3382 H   0  0  0  0  0  0  0  0  0  0  0  0
   -7.9590    0.4398    0.9025 H   0  0  0  0  0  0  0  0  0  0  0  0
   -6.4083    1.0531    1.5042 H   0  0  0  0  0  0  0  0  0  0  0  0
   -7.2412    0.6943   -1.4130 H   0  0  0  0  0  0  0  0  0  0  0  0
   -7.0377    2.2628   -0.4843 H   0  0  0  0  0  0  0  0  0  0  0  0
   -5.2590    1.4404   -2.1592 H   0  0  0  0  0  0  0  0  0  0  0  0
   -4.8603    2.1903   -0.5071 H   0  0  0  0  0  0  0  0  0  0  0  0
   -1.1249   -3.3767   -0.2007 H   0  0  0  0  0  0  0  0  0  0  0  0
    2.4603   -1.1285   -0.9940 H   0  0  0  0  0  0  0  0  0  0  0  0
    3.5493   -2.3529    1.1316 H   0  0  0  0  0  0  0  0  0  0  0  0
    4.2219    0.2744   -1.7071 H   0  0  0  0  0  0  0  0  0  0  0  0
    5.9225   -1.4331   -0.2944 H   0  0  0  0  0  0  0  0  0  0  0  0
  1  2  1  0
  2  3  1  0
  3  4  1  0
  4  5  1  0
  5  6  1  0
  6  7  1  0
  7  8  2  0
  8  9  1  0
  9 10  2  0
 10 11  1  0
 11 12  1  0
 12 13  1  0
 13 14  1  0
 14 15  1  0
 15 16  1  0
 16 17  1  0
 10 18  1  0
 18 19  2  0
 19 20  1  0
 20 21  2  0
  5 22  1  0
 22 23  1  0
 22 24  1  0
 24 25  1  0
 24  3  1  0
 21  6  1  0
 21  9  1  0
 17 12  1  0
  1 26  1  0
  2 27  1  0
  2 28  1  0
  3 29  1  1
  5 30  1  0
  7 31  1  0
 11 32  1  0
 12 33  1  0
 13 34  1  0
 13 35  1  0
 14 36  1  0
 14 37  1  0
 15 38  1  0
 15 39  1  0
 16 40  1  0
 16 41  1  0
 17 42  1  0
 17 43  1  0
 19 44  1  0
 22 45  1  6
 23 46  1  0
 24 47  1  6
 25 48  1  0
M  END
>  <Original_Name>  (35) 
CHEMBL85549

>  <ROSHAMBO_ComboTanimoto>  (35) 
0.954

>  <ROSHAMBO_ShapeTanimoto>  (35) 
0.773

>  <ROSHAMBO_ColorTanimoto>  (35) 
0.181

>  <ROSHAMBO_FitTverskyCombo>  (35) 
1.156

>  <ROSHAMBO_FitTversky>  (35) 
0.882

>  <ROSHAMBO_FitColorTversky>  (35) 
0.274

>  <ROSHAMBO_RefTverskyCombo>  (35) 
1.208

>  <ROSHAMBO_RefTversky>  (35) 
0.862

>  <ROSHAMBO_RefColorTversky>  (35) 
0.346

>  <ROSHAMBO_Overlap>  (35) 
1059.607

$$$$
CHEMBL100382_0_80
     RDKit          3D

 46 50  0  0  0  0  0  0  0  0999 V2000
   -0.7327   -1.3139   -0.1838 O   0  0  0  0  0  0  0  0  0  0  0  0
   -0.9349   -0.1112    0.0304 C   0  0  0  0  0  0  0  0  0  0  0  0
   -2.3504    0.3592    0.0925 C   0  0  0  0  0  0  0  0  0  0  0  0
   -3.3228   -0.7579   -0.1250 C   0  0  0  0  0  0  0  0  0  0  0  0
   -4.6937   -0.1951   -0.0455 C   0  0  0  0  0  0  0  0  0  0  0  0
   -5.4047   -0.1189    1.1468 C   0  0  0  0  0  0  0  0  0  0  0  0
   -6.6720    0.4033    1.2098 C   0  0  0  0  0  0  0  0  0  0  0  0
   -7.2939    0.8745    0.0933 C   0  0  0  0  0  0  0  0  0  0  0  0
   -6.6101    0.8114   -1.1076 C   0  0  0  0  0  0  0  0  0  0  0  0
   -5.3269    0.2826   -1.1713 C   0  0  0  0  0  0  0  0  0  0  0  0
    0.1616    0.7331    0.2008 N   0  0  0  0  0  0  0  0  0  0  0  0
    1.5316    0.4670    0.1749 C   0  0  0  0  0  0  0  0  0  0  0  0
    2.3530    1.5544    0.3857 N   0  0  0  0  0  0  0  0  0  0  0  0
    3.6733    1.4676    0.3915 C   0  0  0  0  0  0  0  0  0  0  0  0
    4.4590    2.5746    0.6053 C   0  0  0  0  0  0  0  0  0  0  0  0
    5.8423    2.4802    0.6108 C   0  0  0  0  0  0  0  0  0  0  0  0
    6.4502    1.2613    0.3994 C   0  0  0  0  0  0  0  0  0  0  0  0
    8.1928    1.1395    0.4057 Cl  0  0  0  0  0  0  0  0  0  0  0  0
    5.6364    0.1374    0.1821 C   0  0  0  0  0  0  0  0  0  0  0  0
    4.2705    0.2495    0.1802 C   0  0  0  0  0  0  0  0  0  0  0  0
    3.4740   -0.8547   -0.0333 C   0  0  0  0  0  0  0  0  0  0  0  0
    3.7433   -2.1337   -0.2611 N   0  0  0  0  0  0  0  0  0  0  0  0
    2.5722   -2.7727   -0.3962 C   0  0  0  0  0  0  0  0  0  0  0  0
    2.4819   -4.2105   -0.6588 C   0  0  0  0  0  0  0  0  0  0  0  0
    1.7556   -4.7411   -1.7236 C   0  0  0  0  0  0  0  0  0  0  0  0
    1.8935   -6.1043   -1.6603 C   0  0  0  0  0  0  0  0  0  0  0  0
    2.6945   -6.3595   -0.5656 C   0  0  0  0  0  0  0  0  0  0  0  0
    3.0091   -5.2140   -0.0175 O   0  0  0  0  0  0  0  0  0  0  0  0
    1.5701   -1.8969   -0.2536 N   0  0  0  0  0  0  0  0  0  0  0  0
    2.1035   -0.7172   -0.0307 N   0  0  0  0  0  0  0  0  0  0  0  0
   -2.5343    0.8023    1.0823 H   0  0  0  0  0  0  0  0  0  0  0  0
   -2.4980    1.0987   -0.7084 H   0  0  0  0  0  0  0  0  0  0  0  0
   -3.1604   -1.2064   -1.1162 H   0  0  0  0  0  0  0  0  0  0  0  0
   -3.1853   -1.5380    0.6382 H   0  0  0  0  0  0  0  0  0  0  0  0
   -4.9358   -0.4896    2.0703 H   0  0  0  0  0  0  0  0  0  0  0  0
   -7.1941    0.4420    2.1773 H   0  0  0  0  0  0  0  0  0  0  0  0
   -8.3099    1.2929    0.1450 H   0  0  0  0  0  0  0  0  0  0  0  0
   -7.0890    1.1850   -2.0248 H   0  0  0  0  0  0  0  0  0  0  0  0
   -4.8066    0.2448   -2.1397 H   0  0  0  0  0  0  0  0  0  0  0  0
   -0.0800    1.7191    0.3752 H   0  0  0  0  0  0  0  0  0  0  0  0
    3.9827    3.5515    0.7749 H   0  0  0  0  0  0  0  0  0  0  0  0
    6.4543    3.3777    0.7837 H   0  0  0  0  0  0  0  0  0  0  0  0
    6.1011   -0.8449    0.0114 H   0  0  0  0  0  0  0  0  0  0  0  0
    1.1815   -4.1748   -2.4717 H   0  0  0  0  0  0  0  0  0  0  0  0
    1.4540   -6.8452   -2.3443 H   0  0  0  0  0  0  0  0  0  0  0  0
    3.0127   -7.3525   -0.2152 H   0  0  0  0  0  0  0  0  0  0  0  0
  1  2  2  0
  2  3  1  0
  3  4  1  0
  4  5  1  0
  5  6  2  0
  6  7  1  0
  7  8  2  0
  8  9  1  0
  9 10  2  0
  2 11  1  0
 11 12  1  0
 12 13  2  0
 13 14  1  0
 14 15  2  0
 15 16  1  0
 16 17  2  0
 17 18  1  0
 17 19  1  0
 19 20  2  0
 20 21  1  0
 21 22  2  0
 22 23  1  0
 23 24  1  0
 24 25  2  0
 25 26  1  0
 26 27  2  0
 27 28  1  0
 23 29  2  0
 29 30  1  0
 10  5  1  0
 30 12  1  0
 20 14  1  0
 30 21  1  0
 28 24  1  0
  3 31  1  0
  3 32  1  0
  4 33  1  0
  4 34  1  0
  6 35  1  0
  7 36  1  0
  8 37  1  0
  9 38  1  0
 10 39  1  0
 11 40  1  0
 15 41  1  0
 16 42  1  0
 19 43  1  0
 25 44  1  0
 26 45  1  0
 27 46  1  0
M  END
>  <Original_Name>  (36) 
CHEMBL100382

>  <ROSHAMBO_ComboTanimoto>  (36) 
0.936

>  <ROSHAMBO_ShapeTanimoto>  (36) 
0.605

>  <ROSHAMBO_ColorTanimoto>  (36) 
0.332

>  <ROSHAMBO_FitTverskyCombo>  (36) 
1.195

>  <ROSHAMBO_FitTversky>  (36) 
0.698

>  <ROSHAMBO_FitColorTversky>  (36) 
0.497

>  <ROSHAMBO_RefTverskyCombo>  (36) 
1.319

>  <ROSHAMBO_RefTversky>  (36) 
0.819

>  <ROSHAMBO_RefColorTversky>  (36) 
0.5

>  <ROSHAMBO_Overlap>  (36) 
1017.757

$$$$
CHEMBL77279_0_25
     RDKit          3D

 59 61  0  0  0  0  0  0  0  0999 V2000
   -0.7707    4.1779    2.0204 C   0  0  0  0  0  0  0  0  0  0  0  0
    0.0705    2.9438    1.8626 C   0  0  0  0  0  0  0  0  0  0  0  0
    0.0812    2.4562    0.4144 C   0  0  0  0  0  0  0  0  0  0  0  0
    0.8854    1.2755    0.2611 N   0  0  0  0  0  0  0  0  0  0  0  0
    0.3135    0.0617    0.4089 C   0  0  0  0  0  0  0  0  0  0  0  0
    1.0104   -1.0898    0.2786 C   0  0  0  0  0  0  0  0  0  0  0  0
    0.1849   -2.0968    0.4773 N   0  0  0  0  0  0  0  0  0  0  0  0
   -1.1043   -1.6391    0.7489 C   0  0  0  0  0  0  0  0  0  0  0  0
   -2.1860   -2.5121    1.1178 C   0  0  0  0  0  0  0  0  0  0  0  0
   -3.4429   -2.3794    1.0893 C   0  0  0  0  0  0  0  0  0  0  0  0
   -4.3065   -1.3215    0.6637 C   0  0  0  0  0  0  0  0  0  0  0  0
   -4.0492   -0.3160   -0.2289 C   0  0  0  0  0  0  0  0  0  0  0  0
   -4.9407    0.7055   -0.4991 C   0  0  0  0  0  0  0  0  0  0  0  0
   -4.6072    1.6883   -1.4134 O   0  0  0  0  0  0  0  0  0  0  0  0
   -3.4039    1.7560   -2.1251 C   0  0  0  0  0  0  0  0  0  0  0  0
   -6.1677    0.7874    0.1140 C   0  0  0  0  0  0  0  0  0  0  0  0
   -7.0725    1.8041   -0.1449 O   0  0  0  0  0  0  0  0  0  0  0  0
   -8.0166    1.5888   -1.2054 C   0  0  0  0  0  0  0  0  0  0  0  0
   -6.4647   -0.2054    1.0154 C   0  0  0  0  0  0  0  0  0  0  0  0
   -7.7162   -0.1506    1.6601 O   0  0  0  0  0  0  0  0  0  0  0  0
   -8.0259   -1.1694    2.5878 C   0  0  0  0  0  0  0  0  0  0  0  0
   -5.5792   -1.2141    1.2809 C   0  0  0  0  0  0  0  0  0  0  0  0
   -0.9682   -0.3236    0.6963 N   0  0  0  0  0  0  0  0  0  0  0  0
    2.3658   -0.9860   -0.0191 C   0  0  0  0  0  0  0  0  0  0  0  0
    2.9946   -2.0755   -0.1356 O   0  0  0  0  0  0  0  0  0  0  0  0
    2.9467    0.2095   -0.1685 N   0  0  0  0  0  0  0  0  0  0  0  0
    4.3574    0.2508   -0.4771 C   0  0  0  0  0  0  0  0  0  0  0  0
    5.1059    0.2905    0.8401 C   0  0  0  0  0  0  0  0  0  0  0  0
    6.5944    0.3351    0.5944 C   0  0  0  0  0  0  0  0  0  0  0  0
    2.2050    1.3153   -0.0276 C   0  0  0  0  0  0  0  0  0  0  0  0
    2.7357    2.4590   -0.1652 O   0  0  0  0  0  0  0  0  0  0  0  0
   -0.9147    4.3891    3.0903 H   0  0  0  0  0  0  0  0  0  0  0  0
   -0.2646    5.0301    1.5433 H   0  0  0  0  0  0  0  0  0  0  0  0
   -1.7489    4.0183    1.5433 H   0  0  0  0  0  0  0  0  0  0  0  0
    1.1015    3.1719    2.1708 H   0  0  0  0  0  0  0  0  0  0  0  0
   -0.3591    2.1500    2.4914 H   0  0  0  0  0  0  0  0  0  0  0  0
   -0.9500    2.2284    0.1065 H   0  0  0  0  0  0  0  0  0  0  0  0
    0.5117    3.2503   -0.2134 H   0  0  0  0  0  0  0  0  0  0  0  0
   -1.8540   -3.4885    1.5004 H   0  0  0  0  0  0  0  0  0  0  0  0
   -3.9836   -3.2583    1.4702 H   0  0  0  0  0  0  0  0  0  0  0  0
   -3.0847   -0.3211   -0.7577 H   0  0  0  0  0  0  0  0  0  0  0  0
   -2.5621    1.8033   -1.4185 H   0  0  0  0  0  0  0  0  0  0  0  0
   -3.3014    0.8622   -2.7581 H   0  0  0  0  0  0  0  0  0  0  0  0
   -3.4023    2.6556   -2.7581 H   0  0  0  0  0  0  0  0  0  0  0  0
   -9.0043    1.3635   -0.7768 H   0  0  0  0  0  0  0  0  0  0  0  0
   -8.0841    2.4946   -1.8258 H   0  0  0  0  0  0  0  0  0  0  0  0
   -7.6846    0.7433   -1.8258 H   0  0  0  0  0  0  0  0  0  0  0  0
   -7.9082   -0.7821    3.6106 H   0  0  0  0  0  0  0  0  0  0  0  0
   -9.0647   -1.4986    2.4377 H   0  0  0  0  0  0  0  0  0  0  0  0
   -7.3461   -2.0210    2.4377 H   0  0  0  0  0  0  0  0  0  0  0  0
   -5.8697   -1.9828    2.0120 H   0  0  0  0  0  0  0  0  0  0  0  0
   -1.7418    0.3378    0.8543 H   0  0  0  0  0  0  0  0  0  0  0  0
    4.6446   -0.6456   -1.0464 H   0  0  0  0  0  0  0  0  0  0  0  0
    4.5967    1.1338   -1.0878 H   0  0  0  0  0  0  0  0  0  0  0  0
    4.8038    1.1863    1.4025 H   0  0  0  0  0  0  0  0  0  0  0  0
    4.8649   -0.6148    1.4166 H   0  0  0  0  0  0  0  0  0  0  0  0
    7.1248    0.3510    1.5579 H   0  0  0  0  0  0  0  0  0  0  0  0
    6.8985   -0.5543    0.0230 H   0  0  0  0  0  0  0  0  0  0  0  0
    6.8448    1.2411    0.0230 H   0  0  0  0  0  0  0  0  0  0  0  0
  1  2  1  0
  2  3  1  0
  3  4  1  0
  4  5  1  0
  5  6  2  0
  6  7  1  0
  7  8  2  0
  8  9  1  0
  9 10  2  3
 10 11  1  0
 11 12  2  0
 12 13  1  0
 13 14  1  0
 14 15  1  0
 13 16  2  0
 16 17  1  0
 17 18  1  0
 16 19  1  0
 19 20  1  0
 20 21  1  0
 19 22  2  0
  8 23  1  0
  6 24  1  0
 24 25  2  0
 24 26  1  0
 26 27  1  0
 27 28  1  0
 28 29  1  0
 26 30  1  0
 30 31  2  0
 30  4  1  0
 23  5  1  0
 22 11  1  0
  1 32  1  0
  1 33  1  0
  1 34  1  0
  2 35  1  0
  2 36  1  0
  3 37  1  0
  3 38  1  0
  9 39  1  0
 10 40  1  0
 12 41  1  0
 15 42  1  0
 15 43  1  0
 15 44  1  0
 18 45  1  0
 18 46  1  0
 18 47  1  0
 21 48  1  0
 21 49  1  0
 21 50  1  0
 22 51  1  0
 23 52  1  0
 27 53  1  0
 27 54  1  0
 28 55  1  0
 28 56  1  0
 29 57  1  0
 29 58  1  0
 29 59  1  0
M  END
>  <Original_Name>  (37) 
CHEMBL77279

>  <ROSHAMBO_ComboTanimoto>  (37) 
0.922

>  <ROSHAMBO_ShapeTanimoto>  (37) 
0.673

>  <ROSHAMBO_ColorTanimoto>  (37) 
0.249

>  <ROSHAMBO_FitTverskyCombo>  (37) 
1.088

>  <ROSHAMBO_FitTversky>  (37) 
0.747

>  <ROSHAMBO_FitColorTversky>  (37) 
0.342

>  <ROSHAMBO_RefTverskyCombo>  (37) 
1.35

>  <ROSHAMBO_RefTversky>  (37) 
0.872

>  <ROSHAMBO_RefColorTversky>  (37) 
0.478

>  <ROSHAMBO_Overlap>  (37) 
1083.114

$$$$
CHEMBL92906_0_78
     RDKit          3D

 49 50  0  0  0  0  0  0  0  0999 V2000
    0.2415    4.3878    0.9052 C   0  0  0  0  0  0  0  0  0  0  0  0
    0.9550    3.0580    1.0809 C   0  0  0  0  0  0  0  0  0  0  0  0
    0.9918    2.3866   -0.2577 C   0  0  0  0  0  0  0  0  0  0  0  0
    1.6407    1.1078   -0.2535 N   0  0  0  0  0  0  0  0  0  0  0  0
    0.8683    0.0255   -0.0115 C   0  0  0  0  0  0  0  0  0  0  0  0
    1.4275   -1.2550    0.0091 C   0  0  0  0  0  0  0  0  0  0  0  0
    0.4458   -2.1104    0.2670 N   0  0  0  0  0  0  0  0  0  0  0  0
   -0.7395   -1.4329    0.4162 C   0  0  0  0  0  0  0  0  0  0  0  0
   -1.9789   -2.1627    0.7576 C   0  0  0  0  0  0  0  0  0  0  0  0
   -3.2005   -1.3321    0.8118 C   0  0  0  0  0  0  0  0  0  0  0  0
   -3.5430   -0.8005   -0.5540 C   0  0  0  0  0  0  0  0  0  0  0  0
   -4.7196    0.0450   -0.5421 N   0  0  0  0  0  0  0  0  0  0  0  0
   -6.0011   -0.3924   -0.1369 C   0  0  0  0  0  0  0  0  0  0  0  0
   -6.1500   -1.5761    0.2355 O   0  0  0  0  0  0  0  0  0  0  0  0
   -7.1779    0.5213   -0.1426 C   0  0  0  0  0  0  0  0  0  0  0  0
   -6.6718    2.2825   -0.7590 Br  0  0  0  0  0  0  0  0  0  0  0  0
   -0.4648   -0.1391    0.2452 N   0  0  0  0  0  0  0  0  0  0  0  0
    2.7803   -1.4049   -0.2209 C   0  0  0  0  0  0  0  0  0  0  0  0
    3.3010   -2.5334   -0.2079 O   0  0  0  0  0  0  0  0  0  0  0  0
    3.5057   -0.3221   -0.4546 N   0  0  0  0  0  0  0  0  0  0  0  0
    4.9067   -0.4205   -0.6977 C   0  0  0  0  0  0  0  0  0  0  0  0
    5.7488   -0.3338    0.5450 C   0  0  0  0  0  0  0  0  0  0  0  0
    7.2046   -0.4525    0.1373 C   0  0  0  0  0  0  0  0  0  0  0  0
    2.9520    0.9275   -0.4732 C   0  0  0  0  0  0  0  0  0  0  0  0
    3.6774    1.9262   -0.6988 O   0  0  0  0  0  0  0  0  0  0  0  0
    0.0125    4.8144    1.8929 H   0  0  0  0  0  0  0  0  0  0  0  0
    0.8890    5.0805    0.3477 H   0  0  0  0  0  0  0  0  0  0  0  0
   -0.6938    4.2312    0.3477 H   0  0  0  0  0  0  0  0  0  0  0  0
    1.9793    3.2266    1.4448 H   0  0  0  0  0  0  0  0  0  0  0  0
    0.4291    2.4301    1.8151 H   0  0  0  0  0  0  0  0  0  0  0  0
   -0.0434    2.2476   -0.6030 H   0  0  0  0  0  0  0  0  0  0  0  0
    1.5778    3.0376   -0.9232 H   0  0  0  0  0  0  0  0  0  0  0  0
   -2.1326   -2.9460    0.0007 H   0  0  0  0  0  0  0  0  0  0  0  0
   -1.8318   -2.5581    1.7734 H   0  0  0  0  0  0  0  0  0  0  0  0
   -4.0368   -1.9436    1.1814 H   0  0  0  0  0  0  0  0  0  0  0  0
   -3.0212   -0.4827    1.4873 H   0  0  0  0  0  0  0  0  0  0  0  0
   -2.6909   -0.2138   -0.9279 H   0  0  0  0  0  0  0  0  0  0  0  0
   -3.7574   -1.6620   -1.2036 H   0  0  0  0  0  0  0  0  0  0  0  0
   -4.6159    1.0233   -0.8472 H   0  0  0  0  0  0  0  0  0  0  0  0
   -7.9495    0.1124   -0.8116 H   0  0  0  0  0  0  0  0  0  0  0  0
   -7.5671    0.6036    0.8830 H   0  0  0  0  0  0  0  0  0  0  0  0
   -1.1550    0.6236    0.2985 H   0  0  0  0  0  0  0  0  0  0  0  0
    5.1065   -1.3864   -1.1847 H   0  0  0  0  0  0  0  0  0  0  0  0
    5.1818    0.4365   -1.3300 H   0  0  0  0  0  0  0  0  0  0  0  0
    5.5789    0.6317    1.0438 H   0  0  0  0  0  0  0  0  0  0  0  0
    5.4818   -1.1409    1.2431 H   0  0  0  0  0  0  0  0  0  0  0  0
    7.8345   -0.5038    1.0376 H   0  0  0  0  0  0  0  0  0  0  0  0
    7.3447   -1.3650   -0.4608 H   0  0  0  0  0  0  0  0  0  0  0  0
    7.4906    0.4254   -0.4608 H   0  0  0  0  0  0  0  0  0  0  0  0
  1  2  1  0
  2  3  1  0
  3  4  1  0
  4  5  1  0
  5  6  2  0
  6  7  1  0
  7  8  2  0
  8  9  1  0
  9 10  1  0
 10 11  1  0
 11 12  1  0
 12 13  1  0
 13 14  2  0
 13 15  1  0
 15 16  1  0
  8 17  1  0
  6 18  1  0
 18 19  2  0
 18 20  1  0
 20 21  1  0
 21 22  1  0
 22 23  1  0
 20 24  1  0
 24 25  2  0
 24  4  1  0
 17  5  1  0
  1 26  1  0
  1 27  1  0
  1 28  1  0
  2 29  1  0
  2 30  1  0
  3 31  1  0
  3 32  1  0
  9 33  1  0
  9 34  1  0
 10 35  1  0
 10 36  1  0
 11 37  1  0
 11 38  1  0
 12 39  1  0
 15 40  1  0
 15 41  1  0
 17 42  1  0
 21 43  1  0
 21 44  1  0
 22 45  1  0
 22 46  1  0
 23 47  1  0
 23 48  1  0
 23 49  1  0
M  END
>  <Original_Name>  (38) 
CHEMBL92906

>  <ROSHAMBO_ComboTanimoto>  (38) 
0.905

>  <ROSHAMBO_ShapeTanimoto>  (38) 
0.697

>  <ROSHAMBO_ColorTanimoto>  (38) 
0.208

>  <ROSHAMBO_FitTverskyCombo>  (38) 
1.155

>  <ROSHAMBO_FitTversky>  (38) 
0.85

>  <ROSHAMBO_FitColorTversky>  (38) 
0.304

>  <ROSHAMBO_RefTverskyCombo>  (38) 
1.191

>  <ROSHAMBO_RefTversky>  (38) 
0.794

>  <ROSHAMBO_RefColorTversky>  (38) 
0.397

>  <ROSHAMBO_Overlap>  (38) 
973.271

$$$$
CHEMBL392136_0_63
     RDKit          3D

 35 38  0  0  0  0  0  0  0  0999 V2000
   -6.9032    0.6196   -0.4182 C   0  0  0  0  0  0  0  0  0  0  0  0
   -5.4371    0.3522   -0.3310 C   0  0  0  0  0  0  0  0  0  0  0  0
   -4.5264    1.0819   -1.0678 C   0  0  0  0  0  0  0  0  0  0  0  0
   -3.1717    0.8258   -0.9792 C   0  0  0  0  0  0  0  0  0  0  0  0
   -2.6619   -0.1643   -0.1569 C   0  0  0  0  0  0  0  0  0  0  0  0
   -1.2225   -0.4119   -0.0845 C   0  0  0  0  0  0  0  0  0  0  0  0
   -0.6087   -1.6087   -0.1094 N   0  0  0  0  0  0  0  0  0  0  0  0
    0.7072   -1.4388   -0.0230 N   0  0  0  0  0  0  0  0  0  0  0  0
    1.7256   -2.3150   -0.0076 C   0  0  0  0  0  0  0  0  0  0  0  0
    1.4492   -3.7138   -0.0954 N   0  0  0  0  0  0  0  0  0  0  0  0
    3.0055   -1.9263    0.0879 N   0  0  0  0  0  0  0  0  0  0  0  0
    3.3038   -0.6290    0.1719 C   0  0  0  0  0  0  0  0  0  0  0  0
    4.6180   -0.1934    0.2718 C   0  0  0  0  0  0  0  0  0  0  0  0
    4.9026    1.1365    0.3566 C   0  0  0  0  0  0  0  0  0  0  0  0
    3.8773    2.0476    0.3426 C   0  0  0  0  0  0  0  0  0  0  0  0
    4.1871    3.7609    0.4485 Cl  0  0  0  0  0  0  0  0  0  0  0  0
    2.5594    1.6197    0.2428 C   0  0  0  0  0  0  0  0  0  0  0  0
    2.2830    0.2878    0.1584 C   0  0  0  0  0  0  0  0  0  0  0  0
    1.0005   -0.1417    0.0607 N   0  0  0  0  0  0  0  0  0  0  0  0
   -0.1858    0.4920    0.0230 C   0  0  0  0  0  0  0  0  0  0  0  0
   -0.3939    1.7282    0.0739 O   0  0  0  0  0  0  0  0  0  0  0  0
   -3.5857   -0.8855    0.5736 C   0  0  0  0  0  0  0  0  0  0  0  0
   -4.9408   -0.6365    0.4914 C   0  0  0  0  0  0  0  0  0  0  0  0
   -7.3229    0.6962    0.5957 H   0  0  0  0  0  0  0  0  0  0  0  0
   -7.0724    1.5634   -0.9573 H   0  0  0  0  0  0  0  0  0  0  0  0
   -7.3947   -0.2037   -0.9573 H   0  0  0  0  0  0  0  0  0  0  0  0
   -4.8845    1.8794   -1.7354 H   0  0  0  0  0  0  0  0  0  0  0  0
   -2.4757    1.4281   -1.5816 H   0  0  0  0  0  0  0  0  0  0  0  0
    2.2231   -4.3934   -0.0844 H   0  0  0  0  0  0  0  0  0  0  0  0
    0.4760   -4.0428   -0.1697 H   0  0  0  0  0  0  0  0  0  0  0  0
    5.4367   -0.9281    0.2826 H   0  0  0  0  0  0  0  0  0  0  0  0
    5.9457    1.4766    0.4356 H   0  0  0  0  0  0  0  0  0  0  0  0
    1.7407    2.3543    0.2320 H   0  0  0  0  0  0  0  0  0  0  0  0
   -3.2303   -1.6836    1.2421 H   0  0  0  0  0  0  0  0  0  0  0  0
   -5.6377   -1.2381    1.0933 H   0  0  0  0  0  0  0  0  0  0  0  0
  1  2  1  0
  2  3  2  0
  3  4  1  0
  4  5  2  0
  5  6  1  0
  6  7  2  0
  7  8  1  0
  8  9  1  0
  9 10  1  0
  9 11  2  0
 11 12  1  0
 12 13  2  0
 13 14  1  0
 14 15  2  0
 15 16  1  0
 15 17  1  0
 17 18  2  0
 18 19  1  0
 19 20  1  0
 20 21  2  0
  5 22  1  0
 22 23  2  0
 23  2  1  0
 20  6  1  0
 19  8  1  0
 18 12  1  0
  1 24  1  0
  1 25  1  0
  1 26  1  0
  3 27  1  0
  4 28  1  0
 10 29  1  0
 10 30  1  0
 13 31  1  0
 14 32  1  0
 17 33  1  0
 22 34  1  0
 23 35  1  0
M  END
>  <Original_Name>  (39) 
CHEMBL392136

>  <ROSHAMBO_ComboTanimoto>  (39) 
0.899

>  <ROSHAMBO_ShapeTanimoto>  (39) 
0.626

>  <ROSHAMBO_ColorTanimoto>  (39) 
0.273

>  <ROSHAMBO_FitTverskyCombo>  (39) 
1.256

>  <ROSHAMBO_FitTversky>  (39) 
0.8

>  <ROSHAMBO_FitColorTversky>  (39) 
0.457

>  <ROSHAMBO_RefTverskyCombo>  (39) 
1.146

>  <ROSHAMBO_RefTversky>  (39) 
0.743

>  <ROSHAMBO_RefColorTversky>  (39) 
0.404

>  <ROSHAMBO_Overlap>  (39) 
910.071

$$$$
CHEMBL118164_0_31
     RDKit          3D

 34 37  0  0  0  0  0  0  0  0999 V2000
   -6.6443    0.1079   -0.0876 N   0  0  0  0  0  0  0  0  0  0  0  0
   -5.2603   -0.1136   -0.0353 C   0  0  0  0  0  0  0  0  0  0  0  0
   -4.6570   -0.9903    0.8304 C   0  0  0  0  0  0  0  0  0  0  0  0
   -3.2761   -1.1670    0.8346 C   0  0  0  0  0  0  0  0  0  0  0  0
   -2.4615   -0.4700   -0.0285 C   0  0  0  0  0  0  0  0  0  0  0  0
   -1.0332   -0.6878    0.0138 N   0  0  0  0  0  0  0  0  0  0  0  0
   -0.4064   -1.8419    0.0228 N   0  0  0  0  0  0  0  0  0  0  0  0
    0.9207   -1.6418    0.0657 C   0  0  0  0  0  0  0  0  0  0  0  0
    2.0194   -2.4863    0.0921 C   0  0  0  0  0  0  0  0  0  0  0  0
    1.8072   -3.9072    0.0727 N   0  0  0  0  0  0  0  0  0  0  0  0
    3.2658   -1.9986    0.1351 N   0  0  0  0  0  0  0  0  0  0  0  0
    3.4864   -0.6678    0.1540 C   0  0  0  0  0  0  0  0  0  0  0  0
    4.7793   -0.1589    0.1986 C   0  0  0  0  0  0  0  0  0  0  0  0
    4.9032    1.2097    0.2148 C   0  0  0  0  0  0  0  0  0  0  0  0
    3.8480    2.0688    0.1899 C   0  0  0  0  0  0  0  0  0  0  0  0
    2.5626    1.5405    0.1453 C   0  0  0  0  0  0  0  0  0  0  0  0
    2.3813    0.1778    0.1274 C   0  0  0  0  0  0  0  0  0  0  0  0
    1.1073   -0.3204    0.0834 N   0  0  0  0  0  0  0  0  0  0  0  0
   -0.0941    0.2724    0.0515 C   0  0  0  0  0  0  0  0  0  0  0  0
   -0.3777    1.5198    0.0540 O   0  0  0  0  0  0  0  0  0  0  0  0
   -3.0603    0.4112   -0.8996 C   0  0  0  0  0  0  0  0  0  0  0  0
   -4.4394    0.5930   -0.9097 C   0  0  0  0  0  0  0  0  0  0  0  0
   -7.0329    0.7816   -0.7629 H   0  0  0  0  0  0  0  0  0  0  0  0
   -7.2721   -0.4031    0.5493 H   0  0  0  0  0  0  0  0  0  0  0  0
   -5.2764   -1.5649    1.5348 H   0  0  0  0  0  0  0  0  0  0  0  0
   -2.8265   -1.8787    1.5428 H   0  0  0  0  0  0  0  0  0  0  0  0
    2.6128   -4.5486    0.0919 H   0  0  0  0  0  0  0  0  0  0  0  0
    0.8493   -4.2844    0.0396 H   0  0  0  0  0  0  0  0  0  0  0  0
    5.6592   -0.8187    0.2199 H   0  0  0  0  0  0  0  0  0  0  0  0
    5.9164    1.6365    0.2500 H   0  0  0  0  0  0  0  0  0  0  0  0
    4.0085    3.1569    0.2046 H   0  0  0  0  0  0  0  0  0  0  0  0
    1.6917    2.2122    0.1244 H   0  0  0  0  0  0  0  0  0  0  0  0
   -2.4360    0.9831   -1.6019 H   0  0  0  0  0  0  0  0  0  0  0  0
   -4.8874    1.3050   -1.6184 H   0  0  0  0  0  0  0  0  0  0  0  0
  1  2  1  0
  2  3  2  0
  3  4  1  0
  4  5  2  0
  5  6  1  0
  6  7  1  0
  7  8  2  0
  8  9  1  0
  9 10  1  0
  9 11  2  0
 11 12  1  0
 12 13  2  0
 13 14  1  0
 14 15  2  0
 15 16  1  0
 16 17  2  0
 17 18  1  0
 18 19  1  0
 19 20  2  0
  5 21  1  0
 21 22  2  0
 22  2  1  0
 19  6  1  0
 18  8  1  0
 17 12  1  0
  1 23  1  0
  1 24  1  0
  3 25  1  0
  4 26  1  0
 10 27  1  0
 10 28  1  0
 13 29  1  0
 14 30  1  0
 15 31  1  0
 16 32  1  0
 21 33  1  0
 22 34  1  0
M  END
>  <Original_Name>  (40) 
CHEMBL118164

>  <ROSHAMBO_ComboTanimoto>  (40) 
0.897

>  <ROSHAMBO_ShapeTanimoto>  (40) 
0.641

>  <ROSHAMBO_ColorTanimoto>  (40) 
0.257

>  <ROSHAMBO_FitTverskyCombo>  (40) 
1.274

>  <ROSHAMBO_FitTversky>  (40) 
0.823

>  <ROSHAMBO_FitColorTversky>  (40) 
0.451

>  <ROSHAMBO_RefTverskyCombo>  (40) 
1.116

>  <ROSHAMBO_RefTversky>  (40) 
0.743

>  <ROSHAMBO_RefColorTversky>  (40) 
0.373

>  <ROSHAMBO_Overlap>  (40) 
909.018

$$$$
CHEMBL256382_0_43
     RDKit          3D

 46 49  0  0  0  0  0  0  0  0999 V2000
   -8.5529   -0.3897   -0.8677 C   0  0  0  0  0  0  0  0  0  0  0  0
   -7.7892   -0.1214    0.2848 O   0  0  0  0  0  0  0  0  0  0  0  0
   -6.4972    0.4048    0.2144 C   0  0  0  0  0  0  0  0  0  0  0  0
   -5.8998    0.6902   -0.9887 C   0  0  0  0  0  0  0  0  0  0  0  0
   -4.6130    1.2148   -1.0748 C   0  0  0  0  0  0  0  0  0  0  0  0
   -3.8889    1.4672    0.0630 C   0  0  0  0  0  0  0  0  0  0  0  0
   -2.5280    2.0184    0.0728 C   0  0  0  0  0  0  0  0  0  0  0  0
   -1.4924    0.9414    0.0305 C   0  0  0  0  0  0  0  0  0  0  0  0
   -1.8844   -0.2437   -0.0063 O   0  0  0  0  0  0  0  0  0  0  0  0
   -0.1209    1.1963    0.0302 N   0  0  0  0  0  0  0  0  0  0  0  0
    0.9532    0.2778   -0.0070 C   0  0  0  0  0  0  0  0  0  0  0  0
    0.8034   -1.0831   -0.0510 C   0  0  0  0  0  0  0  0  0  0  0  0
    1.9380   -1.8687   -0.0843 C   0  0  0  0  0  0  0  0  0  0  0  0
    1.7476   -3.3150   -0.1308 C   0  0  0  0  0  0  0  0  0  0  0  0
    0.6903   -4.0978   -0.1496 N   0  0  0  0  0  0  0  0  0  0  0  0
    0.7771   -5.3713   -0.1922 C   0  0  0  0  0  0  0  0  0  0  0  0
    1.9889   -5.9989   -0.2210 C   0  0  0  0  0  0  0  0  0  0  0  0
    3.0666   -4.5260   -0.1795 S   0  0  0  0  0  0  0  0  0  0  0  0
    3.1327   -1.2881   -0.0730 N   0  0  0  0  0  0  0  0  0  0  0  0
    3.3034    0.0387   -0.0303 C   0  0  0  0  0  0  0  0  0  0  0  0
    4.6708    0.5689   -0.0217 C   0  0  0  0  0  0  0  0  0  0  0  0
    5.7465   -0.2940   -0.0572 C   0  0  0  0  0  0  0  0  0  0  0  0
    7.0510    0.1428   -0.0513 C   0  0  0  0  0  0  0  0  0  0  0  0
    7.2683    1.5032   -0.0078 C   0  0  0  0  0  0  0  0  0  0  0  0
    6.1849    2.3512    0.0272 C   0  0  0  0  0  0  0  0  0  0  0  0
    4.9397    1.8625    0.0192 N   0  0  0  0  0  0  0  0  0  0  0  0
    2.2292    0.8040    0.0020 N   0  0  0  0  0  0  0  0  0  0  0  0
   -4.4901    1.1801    1.2710 C   0  0  0  0  0  0  0  0  0  0  0  0
   -5.7673    0.6594    1.3560 C   0  0  0  0  0  0  0  0  0  0  0  0
   -9.5524   -0.7408   -0.5717 H   0  0  0  0  0  0  0  0  0  0  0  0
   -8.6491    0.5285   -1.4658 H   0  0  0  0  0  0  0  0  0  0  0  0
   -8.0537   -1.1662   -1.4658 H   0  0  0  0  0  0  0  0  0  0  0  0
   -6.4576    0.4976   -1.9170 H   0  0  0  0  0  0  0  0  0  0  0  0
   -4.1743    1.4281   -2.0608 H   0  0  0  0  0  0  0  0  0  0  0  0
   -2.4010    2.6690   -0.8051 H   0  0  0  0  0  0  0  0  0  0  0  0
   -2.3949    2.5840    1.0068 H   0  0  0  0  0  0  0  0  0  0  0  0
    0.1460    2.1906    0.0615 H   0  0  0  0  0  0  0  0  0  0  0  0
   -0.1975   -1.5392   -0.0595 H   0  0  0  0  0  0  0  0  0  0  0  0
   -0.1428   -5.9742   -0.2060 H   0  0  0  0  0  0  0  0  0  0  0  0
    2.2402   -7.0692   -0.2580 H   0  0  0  0  0  0  0  0  0  0  0  0
    5.5532   -1.3763   -0.0917 H   0  0  0  0  0  0  0  0  0  0  0  0
    7.8901   -0.5678   -0.0802 H   0  0  0  0  0  0  0  0  0  0  0  0
    8.2923    1.9050   -0.0012 H   0  0  0  0  0  0  0  0  0  0  0  0
    6.3441    3.4391    0.0621 H   0  0  0  0  0  0  0  0  0  0  0  0
   -3.9329    1.3724    2.1997 H   0  0  0  0  0  0  0  0  0  0  0  0
   -6.2051    0.4465    2.3424 H   0  0  0  0  0  0  0  0  0  0  0  0
  1  2  1  0
  2  3  1  0
  3  4  2  0
  4  5  1  0
  5  6  2  0
  6  7  1  0
  7  8  1  0
  8  9  2  0
  8 10  1  0
 10 11  1  0
 11 12  2  0
 12 13  1  0
 13 14  1  0
 14 15  2  0
 15 16  1  0
 16 17  2  0
 17 18  1  0
 13 19  2  0
 19 20  1  0
 20 21  1  0
 21 22  2  0
 22 23  1  0
 23 24  2  0
 24 25  1  0
 25 26  2  0
 20 27  2  0
  6 28  1  0
 28 29  2  0
 29  3  1  0
 27 11  1  0
 18 14  1  0
 26 21  1  0
  1 30  1  0
  1 31  1  0
  1 32  1  0
  4 33  1  0
  5 34  1  0
  7 35  1  0
  7 36  1  0
 10 37  1  0
 12 38  1  0
 16 39  1  0
 17 40  1  0
 22 41  1  0
 23 42  1  0
 24 43  1  0
 25 44  1  0
 28 45  1  0
 29 46  1  0
M  END
>  <Original_Name>  (41) 
CHEMBL256382

>  <ROSHAMBO_ComboTanimoto>  (41) 
0.897

>  <ROSHAMBO_ShapeTanimoto>  (41) 
0.554

>  <ROSHAMBO_ColorTanimoto>  (41) 
0.343

>  <ROSHAMBO_FitTverskyCombo>  (41) 
1.202

>  <ROSHAMBO_FitTversky>  (41) 
0.681

>  <ROSHAMBO_FitColorTversky>  (41) 
0.521

>  <ROSHAMBO_RefTverskyCombo>  (41) 
1.249

>  <ROSHAMBO_RefTversky>  (41) 
0.748

>  <ROSHAMBO_RefColorTversky>  (41) 
0.501

>  <ROSHAMBO_Overlap>  (41) 
925.035

$$$$
CHEMBL166429_0_5
     RDKit          3D

 31 32  0  0  0  0  0  0  0  0999 V2000
   -0.3715    0.1108    0.5694 S   0  0  0  0  0  0  0  0  0  0  0  0
   -0.3056   -1.3829   -0.0563 C   0  0  0  0  0  0  0  0  0  0  0  0
    1.0007   -1.9779   -0.3941 C   0  0  0  0  0  0  0  0  0  0  0  0
    2.0852   -1.0384   -0.0784 C   0  0  0  0  0  0  0  0  0  0  0  0
    2.6649   -1.0533    1.1558 C   0  0  0  0  0  0  0  0  0  0  0  0
    3.7012   -0.1873    1.5229 C   0  0  0  0  0  0  0  0  0  0  0  0
    4.1262    0.7068    0.5633 C   0  0  0  0  0  0  0  0  0  0  0  0
    3.5576    0.7434   -0.6924 C   0  0  0  0  0  0  0  0  0  0  0  0
    2.5298   -0.1279   -1.0310 C   0  0  0  0  0  0  0  0  0  0  0  0
   -1.4863   -2.1108   -0.2774 N   0  0  0  0  0  0  0  0  0  0  0  0
   -2.7601   -1.6309    0.0102 N   0  0  0  0  0  0  0  0  0  0  0  0
   -3.1009   -0.4735   -0.4170 C   0  0  0  0  0  0  0  0  0  0  0  0
   -4.4373    0.0470   -0.1236 C   0  0  0  0  0  0  0  0  0  0  0  0
   -4.8441    1.2790   -0.5604 C   0  0  0  0  0  0  0  0  0  0  0  0
   -6.1090    1.7516   -0.2727 C   0  0  0  0  0  0  0  0  0  0  0  0
   -6.9561    0.9519    0.4668 C   0  0  0  0  0  0  0  0  0  0  0  0
   -6.5775   -0.2614    0.9060 N   0  0  0  0  0  0  0  0  0  0  0  0
   -5.3268   -0.7038    0.6094 C   0  0  0  0  0  0  0  0  0  0  0  0
    1.1399   -2.9016    0.1869 H   0  0  0  0  0  0  0  0  0  0  0  0
    1.0240   -2.2031   -1.4705 H   0  0  0  0  0  0  0  0  0  0  0  0
    2.3012   -1.7798    1.8973 H   0  0  0  0  0  0  0  0  0  0  0  0
    4.1532   -0.2183    2.5252 H   0  0  0  0  0  0  0  0  0  0  0  0
    4.9385    1.4080    0.8052 H   0  0  0  0  0  0  0  0  0  0  0  0
    3.9216    1.4701   -1.4337 H   0  0  0  0  0  0  0  0  0  0  0  0
    2.0766   -0.0982   -2.0329 H   0  0  0  0  0  0  0  0  0  0  0  0
   -1.4042   -3.0568   -0.6765 H   0  0  0  0  0  0  0  0  0  0  0  0
   -2.3912    0.1286   -1.0033 H   0  0  0  0  0  0  0  0  0  0  0  0
   -4.1535    1.9011   -1.1486 H   0  0  0  0  0  0  0  0  0  0  0  0
   -6.4337    2.7419   -0.6247 H   0  0  0  0  0  0  0  0  0  0  0  0
   -7.9668    1.3161    0.7032 H   0  0  0  0  0  0  0  0  0  0  0  0
   -5.0154   -1.6960    0.9679 H   0  0  0  0  0  0  0  0  0  0  0  0
  1  2  2  0
  2  3  1  0
  3  4  1  0
  4  5  2  0
  5  6  1  0
  6  7  2  0
  7  8  1  0
  8  9  2  0
  2 10  1  0
 10 11  1  0
 11 12  2  3
 12 13  1  0
 13 14  2  0
 14 15  1  0
 15 16  2  0
 16 17  1  0
 17 18  2  0
  9  4  1  0
 18 13  1  0
  3 19  1  0
  3 20  1  0
  5 21  1  0
  6 22  1  0
  7 23  1  0
  8 24  1  0
  9 25  1  0
 10 26  1  0
 12 27  1  0
 14 28  1  0
 15 29  1  0
 16 30  1  0
 18 31  1  0
M  END
>  <Original_Name>  (42) 
CHEMBL166429

>  <ROSHAMBO_ComboTanimoto>  (42) 
0.889

>  <ROSHAMBO_ShapeTanimoto>  (42) 
0.628

>  <ROSHAMBO_ColorTanimoto>  (42) 
0.261

>  <ROSHAMBO_FitTverskyCombo>  (42) 
1.555

>  <ROSHAMBO_FitTversky>  (42) 
0.944

>  <ROSHAMBO_FitColorTversky>  (42) 
0.611

>  <ROSHAMBO_RefTverskyCombo>  (42) 
0.966

>  <ROSHAMBO_RefTversky>  (42) 
0.653

>  <ROSHAMBO_RefColorTversky>  (42) 
0.314

>  <ROSHAMBO_Overlap>  (42) 
789.44

$$$$
CHEMBL81616_0_93
     RDKit          3D

 45 47  0  0  0  0  0  0  0  0999 V2000
   -0.9737    3.6480   -3.7449 C   0  0  0  0  0  0  0  0  0  0  0  0
   -0.1146    3.2172   -2.5798 C   0  0  0  0  0  0  0  0  0  0  0  0
   -0.1492    2.0433   -2.2327 O   0  0  0  0  0  0  0  0  0  0  0  0
    0.7054    4.1287   -1.9054 N   0  0  0  0  0  0  0  0  0  0  0  0
    1.5725    3.9420   -0.8037 C   0  0  0  0  0  0  0  0  0  0  0  0
    0.9521    3.4911    0.4575 C   0  0  0  0  0  0  0  0  0  0  0  0
    0.3617    2.1677    0.4081 N   0  0  0  0  0  0  0  0  0  0  0  0
    1.2253    1.0144    0.3279 C   0  0  0  0  0  0  0  0  0  0  0  0
    0.6805   -0.2420    0.2804 C   0  0  0  0  0  0  0  0  0  0  0  0
   -0.6042   -0.7594    0.2887 C   0  0  0  0  0  0  0  0  0  0  0  0
   -1.8737   -0.0185    0.3586 C   0  0  0  0  0  0  0  0  0  0  0  0
   -0.4830   -2.1525    0.2168 C   0  0  0  0  0  0  0  0  0  0  0  0
   -1.6226   -3.1299    0.1988 C   0  0  0  0  0  0  0  0  0  0  0  0
    0.7973   -2.4899    0.1664 N   0  0  0  0  0  0  0  0  0  0  0  0
    1.5171   -1.3704    0.2026 C   0  0  0  0  0  0  0  0  0  0  0  0
    2.8285   -1.1312    0.1797 N   0  0  0  0  0  0  0  0  0  0  0  0
    3.3825    0.0909    0.2253 C   0  0  0  0  0  0  0  0  0  0  0  0
    2.5607    1.1428    0.2989 N   0  0  0  0  0  0  0  0  0  0  0  0
    4.8308    0.2094    0.1928 C   0  0  0  0  0  0  0  0  0  0  0  0
    5.6480   -0.8970    0.1169 C   0  0  0  0  0  0  0  0  0  0  0  0
    7.0132   -0.8344    0.0838 C   0  0  0  0  0  0  0  0  0  0  0  0
    7.6008    0.4091    0.1293 C   0  0  0  0  0  0  0  0  0  0  0  0
    6.8152    1.5619    0.2067 C   0  0  0  0  0  0  0  0  0  0  0  0
    5.4387    1.4490    0.2376 C   0  0  0  0  0  0  0  0  0  0  0  0
   -1.8974    4.1112   -3.3678 H   0  0  0  0  0  0  0  0  0  0  0  0
   -0.4221    4.3762   -4.3577 H   0  0  0  0  0  0  0  0  0  0  0  0
   -1.2273    2.7704   -4.3577 H   0  0  0  0  0  0  0  0  0  0  0  0
    0.6721    5.0913   -2.2703 H   0  0  0  0  0  0  0  0  0  0  0  0
    2.3229    3.1917   -1.0933 H   0  0  0  0  0  0  0  0  0  0  0  0
    1.9817    4.9393   -0.5849 H   0  0  0  0  0  0  0  0  0  0  0  0
    1.7269    3.4907    1.2384 H   0  0  0  0  0  0  0  0  0  0  0  0
    0.1275    4.1895    0.6629 H   0  0  0  0  0  0  0  0  0  0  0  0
   -0.6616    2.0523    0.4299 H   0  0  0  0  0  0  0  0  0  0  0  0
   -2.1475    0.1414    1.4119 H   0  0  0  0  0  0  0  0  0  0  0  0
   -1.7585    0.9542   -0.1420 H   0  0  0  0  0  0  0  0  0  0  0  0
   -2.6640   -0.5971   -0.1420 H   0  0  0  0  0  0  0  0  0  0  0  0
   -1.9104   -3.3767    1.2313 H   0  0  0  0  0  0  0  0  0  0  0  0
   -2.4809   -2.6828   -0.3242 H   0  0  0  0  0  0  0  0  0  0  0  0
   -1.3115   -4.0463   -0.3242 H   0  0  0  0  0  0  0  0  0  0  0  0
    1.1698   -3.4485    0.1093 H   0  0  0  0  0  0  0  0  0  0  0  0
    5.1742   -1.8891    0.0807 H   0  0  0  0  0  0  0  0  0  0  0  0
    7.6222   -1.7484    0.0228 H   0  0  0  0  0  0  0  0  0  0  0  0
    8.6971    0.4961    0.1046 H   0  0  0  0  0  0  0  0  0  0  0  0
    7.2899    2.5536    0.2429 H   0  0  0  0  0  0  0  0  0  0  0  0
    4.8199    2.3563    0.2985 H   0  0  0  0  0  0  0  0  0  0  0  0
  1  2  1  0
  2  3  2  0
  2  4  1  0
  4  5  1  0
  5  6  1  0
  6  7  1  0
  7  8  1  0
  8  9  2  0
  9 10  1  0
 10 11  1  0
 10 12  2  0
 12 13  1  0
 12 14  1  0
 14 15  1  0
 15 16  2  0
 16 17  1  0
 17 18  2  0
 17 19  1  0
 19 20  2  0
 20 21  1  0
 21 22  2  0
 22 23  1  0
 23 24  2  0
 18  8  1  0
 24 19  1  0
 15  9  1  0
  1 25  1  0
  1 26  1  0
  1 27  1  0
  4 28  1  0
  5 29  1  0
  5 30  1  0
  6 31  1  0
  6 32  1  0
  7 33  1  0
 11 34  1  0
 11 35  1  0
 11 36  1  0
 13 37  1  0
 13 38  1  0
 13 39  1  0
 14 40  1  0
 20 41  1  0
 21 42  1  0
 22 43  1  0
 23 44  1  0
 24 45  1  0
M  END
>  <Original_Name>  (43) 
CHEMBL81616

>  <ROSHAMBO_ComboTanimoto>  (43) 
0.885

>  <ROSHAMBO_ShapeTanimoto>  (43) 
0.538

>  <ROSHAMBO_ColorTanimoto>  (43) 
0.347

>  <ROSHAMBO_FitTverskyCombo>  (43) 
1.258

>  <ROSHAMBO_FitTversky>  (43) 
0.726

>  <ROSHAMBO_FitColorTversky>  (43) 
0.532

>  <ROSHAMBO_RefTverskyCombo>  (43) 
1.173

>  <ROSHAMBO_RefTversky>  (43) 
0.675

>  <ROSHAMBO_RefColorTversky>  (43) 
0.499

>  <ROSHAMBO_Overlap>  (43) 
826.842

$$$$
CHEMBL1170519_0_3
     RDKit          3D

 43 45  0  0  0  0  0  0  0  0999 V2000
    6.0879    0.3389    0.7547 C   0  0  0  0  0  0  0  0  0  0  0  0
    5.1974    0.8137   -0.3428 C   0  0  0  0  0  0  0  0  0  0  0  0
    3.7912    0.9687    0.0812 N   0  0  0  0  0  0  0  0  0  0  0  0
    3.4161    2.2109    0.5774 C   0  0  0  0  0  0  0  0  0  0  0  0
    4.4468    3.3267    0.5271 C   0  0  0  0  0  0  0  0  0  0  0  0
    2.3302    2.5692    1.0738 O   0  0  0  0  0  0  0  0  0  0  0  0
    2.9801   -0.1723   -0.0746 C   0  0  0  0  0  0  0  0  0  0  0  0
    1.5988   -0.1673   -0.0555 C   0  0  0  0  0  0  0  0  0  0  0  0
    0.4325    1.1179    0.0779 S   0  0  0  0  0  0  0  0  0  0  0  0
   -1.0652   -0.0244   -0.0338 C   0  0  0  0  0  0  0  0  0  0  0  0
   -2.3727    0.5679    0.0305 N   0  0  0  0  0  0  0  0  0  0  0  0
   -3.4943   -0.2928   -0.0532 C   0  0  0  0  0  0  0  0  0  0  0  0
   -3.2724   -1.5416   -0.1807 O   0  0  0  0  0  0  0  0  0  0  0  0
   -4.8599    0.2135    0.0026 C   0  0  0  0  0  0  0  0  0  0  0  0
   -6.0051   -0.5465   -0.0707 C   0  0  0  0  0  0  0  0  0  0  0  0
   -7.0512    0.3020    0.0188 N   0  0  0  0  0  0  0  0  0  0  0  0
   -6.5813    1.5591    0.1447 C   0  0  0  0  0  0  0  0  0  0  0  0
   -5.1839    1.5463    0.1388 C   0  0  0  0  0  0  0  0  0  0  0  0
   -0.4920   -1.0505   -0.1401 N   0  0  0  0  0  0  0  0  0  0  0  0
    0.7939   -1.2793   -0.1673 C   0  0  0  0  0  0  0  0  0  0  0  0
    1.4365   -2.5181   -0.3126 C   0  0  0  0  0  0  0  0  0  0  0  0
    0.7726   -3.7106   -0.4346 O   0  0  0  0  0  0  0  0  0  0  0  0
    1.4438   -4.9371   -0.5790 C   0  0  0  0  0  0  0  0  0  0  0  0
    2.8112   -2.5458   -0.3348 C   0  0  0  0  0  0  0  0  0  0  0  0
    3.5985   -1.4325   -0.2227 C   0  0  0  0  0  0  0  0  0  0  0  0
    5.6333    0.5813    1.7266 H   0  0  0  0  0  0  0  0  0  0  0  0
    6.2211   -0.7500    0.6736 H   0  0  0  0  0  0  0  0  0  0  0  0
    7.0663    0.8350    0.6736 H   0  0  0  0  0  0  0  0  0  0  0  0
    5.5662    1.7878   -0.6967 H   0  0  0  0  0  0  0  0  0  0  0  0
    5.2197    0.0530   -1.1370 H   0  0  0  0  0  0  0  0  0  0  0  0
    4.7188    3.6211    1.5515 H   0  0  0  0  0  0  0  0  0  0  0  0
    5.3436    2.9738   -0.0033 H   0  0  0  0  0  0  0  0  0  0  0  0
    4.0241    4.1927   -0.0033 H   0  0  0  0  0  0  0  0  0  0  0  0
   -2.4905    1.5859    0.1343 H   0  0  0  0  0  0  0  0  0  0  0  0
   -6.0579   -1.6396   -0.1814 H   0  0  0  0  0  0  0  0  0  0  0  0
   -8.0452    0.0329   -0.0053 H   0  0  0  0  0  0  0  0  0  0  0  0
   -7.2048    2.4605    0.2381 H   0  0  0  0  0  0  0  0  0  0  0  0
   -4.4995    2.4033    0.2235 H   0  0  0  0  0  0  0  0  0  0  0  0
    1.6700   -5.3505    0.4149 H   0  0  0  0  0  0  0  0  0  0  0  0
    0.8054   -5.6415   -1.1325 H   0  0  0  0  0  0  0  0  0  0  0  0
    2.3812   -4.7791   -1.1325 H   0  0  0  0  0  0  0  0  0  0  0  0
    3.3073   -3.5209   -0.4495 H   0  0  0  0  0  0  0  0  0  0  0  0
    4.6949   -1.5179   -0.2476 H   0  0  0  0  0  0  0  0  0  0  0  0
  1  2  1  0
  2  3  1  0
  3  4  1  0
  4  5  1  0
  4  6  2  0
  3  7  1  0
  7  8  2  0
  8  9  1  0
  9 10  1  0
 10 11  1  0
 11 12  1  0
 12 13  2  0
 12 14  1  0
 14 15  2  0
 15 16  1  0
 16 17  1  0
 17 18  2  0
 10 19  2  0
 19 20  1  0
 20 21  2  0
 21 22  1  0
 22 23  1  0
 21 24  1  0
 24 25  2  0
 25  7  1  0
 20  8  1  0
 18 14  1  0
  1 26  1  0
  1 27  1  0
  1 28  1  0
  2 29  1  0
  2 30  1  0
  5 31  1  0
  5 32  1  0
  5 33  1  0
 11 34  1  0
 15 35  1  0
 16 36  1  0
 17 37  1  0
 18 38  1  0
 23 39  1  0
 23 40  1  0
 23 41  1  0
 24 42  1  0
 25 43  1  0
M  END
>  <Original_Name>  (44) 
CHEMBL1170519

>  <ROSHAMBO_ComboTanimoto>  (44) 
0.883

>  <ROSHAMBO_ShapeTanimoto>  (44) 
0.618

>  <ROSHAMBO_ColorTanimoto>  (44) 
0.265

>  <ROSHAMBO_FitTverskyCombo>  (44) 
1.19

>  <ROSHAMBO_FitTversky>  (44) 
0.783

>  <ROSHAMBO_FitColorTversky>  (44) 
0.408

>  <ROSHAMBO_RefTverskyCombo>  (44) 
1.176

>  <ROSHAMBO_RefTversky>  (44) 
0.746

>  <ROSHAMBO_RefColorTversky>  (44) 
0.43

>  <ROSHAMBO_Overlap>  (44) 
915.387

$$$$
CHEMBL257982_0_61
     RDKit          3D

 37 40  0  0  0  0  0  0  0  0999 V2000
    0.6858   -3.8715   -0.1834 N   0  0  0  0  0  0  0  0  0  0  0  0
    0.7644   -2.4775    0.0685 C   0  0  0  0  0  0  0  0  0  0  0  0
    1.9408   -1.8297   -0.0228 N   0  0  0  0  0  0  0  0  0  0  0  0
    2.1074   -0.5173    0.1974 C   0  0  0  0  0  0  0  0  0  0  0  0
    3.4321    0.1002    0.0732 C   0  0  0  0  0  0  0  0  0  0  0  0
    4.5105   -0.6855   -0.2740 C   0  0  0  0  0  0  0  0  0  0  0  0
    5.7898   -0.1771   -0.4107 C   0  0  0  0  0  0  0  0  0  0  0  0
    5.9912    1.1670   -0.1908 C   0  0  0  0  0  0  0  0  0  0  0  0
    4.9072    1.9379    0.1545 C   0  0  0  0  0  0  0  0  0  0  0  0
    3.6557    1.4064    0.2818 N   0  0  0  0  0  0  0  0  0  0  0  0
    0.9863    0.2050    0.5403 C   0  0  0  0  0  0  0  0  0  0  0  0
    0.7683    1.5168    0.8307 C   0  0  0  0  0  0  0  0  0  0  0  0
   -0.5512    1.6607    1.0994 N   0  0  0  0  0  0  0  0  0  0  0  0
   -1.1736    0.5085    0.9931 N   0  0  0  0  0  0  0  0  0  0  0  0
   -2.5573    0.2513    1.1969 C   0  0  0  0  0  0  0  0  0  0  0  0
   -3.3798    0.3904   -0.0150 C   0  0  0  0  0  0  0  0  0  0  0  0
   -2.9043    0.7347   -1.2538 C   0  0  0  0  0  0  0  0  0  0  0  0
   -3.7076    0.8578   -2.3790 C   0  0  0  0  0  0  0  0  0  0  0  0
   -5.0587    0.6145   -2.2152 C   0  0  0  0  0  0  0  0  0  0  0  0
   -5.5888    0.2652   -0.9911 C   0  0  0  0  0  0  0  0  0  0  0  0
   -4.7412    0.1581    0.0917 C   0  0  0  0  0  0  0  0  0  0  0  0
   -5.2926   -0.1865    1.2793 F   0  0  0  0  0  0  0  0  0  0  0  0
   -0.2526   -0.4233    0.6468 C   0  0  0  0  0  0  0  0  0  0  0  0
   -0.3104   -1.7438    0.4051 N   0  0  0  0  0  0  0  0  0  0  0  0
   -0.2193   -4.3578   -0.1108 H   0  0  0  0  0  0  0  0  0  0  0  0
    1.5338   -4.3973   -0.4389 H   0  0  0  0  0  0  0  0  0  0  0  0
    4.3472   -1.7591   -0.4492 H   0  0  0  0  0  0  0  0  0  0  0  0
    6.6281   -0.8326   -0.6891 H   0  0  0  0  0  0  0  0  0  0  0  0
    6.9925    1.6118   -0.2889 H   0  0  0  0  0  0  0  0  0  0  0  0
    5.0517    3.0135    0.3335 H   0  0  0  0  0  0  0  0  0  0  0  0
    1.5257    2.3144    0.8446 H   0  0  0  0  0  0  0  0  0  0  0  0
   -2.6658   -0.7772    1.5717 H   0  0  0  0  0  0  0  0  0  0  0  0
   -2.9176    1.0049    1.9127 H   0  0  0  0  0  0  0  0  0  0  0  0
   -1.8261    0.9239   -1.3621 H   0  0  0  0  0  0  0  0  0  0  0  0
   -3.2881    1.1363   -3.3570 H   0  0  0  0  0  0  0  0  0  0  0  0
   -5.7281    0.7020   -3.0837 H   0  0  0  0  0  0  0  0  0  0  0  0
   -6.6666    0.0755   -0.8804 H   0  0  0  0  0  0  0  0  0  0  0  0
  1  2  1  0
  2  3  2  0
  3  4  1  0
  4  5  1  0
  5  6  2  0
  6  7  1  0
  7  8  2  0
  8  9  1  0
  9 10  2  0
  4 11  2  0
 11 12  1  0
 12 13  2  0
 13 14  1  0
 14 15  1  0
 15 16  1  0
 16 17  2  0
 17 18  1  0
 18 19  2  0
 19 20  1  0
 20 21  2  0
 21 22  1  0
 14 23  1  0
 23 24  2  0
 24  2  1  0
 10  5  1  0
 23 11  1  0
 21 16  1  0
  1 25  1  0
  1 26  1  0
  6 27  1  0
  7 28  1  0
  8 29  1  0
  9 30  1  0
 12 31  1  0
 15 32  1  0
 15 33  1  0
 17 34  1  0
 18 35  1  0
 19 36  1  0
 20 37  1  0
M  END
>  <Original_Name>  (45) 
CHEMBL257982

>  <ROSHAMBO_ComboTanimoto>  (45) 
0.87

>  <ROSHAMBO_ShapeTanimoto>  (45) 
0.615

>  <ROSHAMBO_ColorTanimoto>  (45) 
0.255

>  <ROSHAMBO_FitTverskyCombo>  (45) 
1.213

>  <ROSHAMBO_FitTversky>  (45) 
0.778

>  <ROSHAMBO_FitColorTversky>  (45) 
0.435

>  <ROSHAMBO_RefTverskyCombo>  (45) 
1.128

>  <ROSHAMBO_RefTversky>  (45) 
0.746

>  <ROSHAMBO_RefColorTversky>  (45) 
0.382

>  <ROSHAMBO_Overlap>  (45) 
915.741

$$$$
CHEMBL16687_0_3
     RDKit          3D

 28 31  0  0  0  0  0  0  0  0999 V2000
   -0.7710   -4.1734    0.1637 N   0  0  0  0  0  0  0  0  0  0  0  0
   -0.2497   -2.8525    0.2118 C   0  0  0  0  0  0  0  0  0  0  0  0
    1.0740   -2.6666    0.2680 N   0  0  0  0  0  0  0  0  0  0  0  0
    1.5235   -1.3899    0.3124 C   0  0  0  0  0  0  0  0  0  0  0  0
    2.8836   -1.1824    0.3705 C   0  0  0  0  0  0  0  0  0  0  0  0
    3.3889    0.0895    0.4170 C   0  0  0  0  0  0  0  0  0  0  0  0
    2.5218    1.1500    0.4049 C   0  0  0  0  0  0  0  0  0  0  0  0
    3.1437    2.8052    0.4640 Cl  0  0  0  0  0  0  0  0  0  0  0  0
    1.1606    0.9433    0.3468 C   0  0  0  0  0  0  0  0  0  0  0  0
    0.6297   -0.3282    0.2993 C   0  0  0  0  0  0  0  0  0  0  0  0
   -0.7235   -0.5658    0.2408 C   0  0  0  0  0  0  0  0  0  0  0  0
   -1.7913    0.2425    0.2155 N   0  0  0  0  0  0  0  0  0  0  0  0
   -2.9229   -0.5156    0.1549 C   0  0  0  0  0  0  0  0  0  0  0  0
   -4.3062   -0.0476    0.1100 C   0  0  0  0  0  0  0  0  0  0  0  0
   -4.7456    1.1075   -0.5249 C   0  0  0  0  0  0  0  0  0  0  0  0
   -6.1136    1.2064   -0.3448 C   0  0  0  0  0  0  0  0  0  0  0  0
   -6.4462    0.0888    0.4029 C   0  0  0  0  0  0  0  0  0  0  0  0
   -5.3540   -0.5970    0.6334 O   0  0  0  0  0  0  0  0  0  0  0  0
   -2.4716   -1.7811    0.1464 N   0  0  0  0  0  0  0  0  0  0  0  0
   -1.1532   -1.8386    0.1973 N   0  0  0  0  0  0  0  0  0  0  0  0
   -1.7890   -4.3241    0.1203 H   0  0  0  0  0  0  0  0  0  0  0  0
   -0.1309   -4.9803    0.1721 H   0  0  0  0  0  0  0  0  0  0  0  0
    3.5682   -2.0433    0.3796 H   0  0  0  0  0  0  0  0  0  0  0  0
    4.4751    0.2572    0.4635 H   0  0  0  0  0  0  0  0  0  0  0  0
    0.4838    1.8104    0.3381 H   0  0  0  0  0  0  0  0  0  0  0  0
   -4.1145    1.8205   -1.0757 H   0  0  0  0  0  0  0  0  0  0  0  0
   -6.7861    1.9953   -0.7128 H   0  0  0  0  0  0  0  0  0  0  0  0
   -7.4569   -0.1778    0.7455 H   0  0  0  0  0  0  0  0  0  0  0  0
  1  2  1  0
  2  3  2  0
  3  4  1  0
  4  5  2  0
  5  6  1  0
  6  7  2  0
  7  8  1  0
  7  9  1  0
  9 10  2  0
 10 11  1  0
 11 12  2  0
 12 13  1  0
 13 14  1  0
 14 15  2  0
 15 16  1  0
 16 17  2  0
 17 18  1  0
 13 19  2  0
 19 20  1  0
 20  2  1  0
 10  4  1  0
 20 11  1  0
 18 14  1  0
  1 21  1  0
  1 22  1  0
  5 23  1  0
  6 24  1  0
  9 25  1  0
 15 26  1  0
 16 27  1  0
 17 28  1  0
M  END
>  <Original_Name>  (46) 
CHEMBL16687

>  <ROSHAMBO_ComboTanimoto>  (46) 
0.869

>  <ROSHAMBO_ShapeTanimoto>  (46) 
0.609

>  <ROSHAMBO_ColorTanimoto>  (46) 
0.26

>  <ROSHAMBO_FitTverskyCombo>  (46) 
1.288

>  <ROSHAMBO_FitTversky>  (46) 
0.836

>  <ROSHAMBO_FitColorTversky>  (46) 
0.452

>  <ROSHAMBO_RefTverskyCombo>  (46) 
1.071

>  <ROSHAMBO_RefTversky>  (46) 
0.692

>  <ROSHAMBO_RefColorTversky>  (46) 
0.379

>  <ROSHAMBO_Overlap>  (46) 
843.122

$$$$
CHEMBL573589_0_60
     RDKit          3D

 44 48  0  0  0  0  0  0  0  0999 V2000
    2.0930   -6.2870    0.0043 C   0  0  0  0  0  0  0  0  0  0  0  0
    1.9747   -4.8272    0.0960 N   0  0  0  0  0  0  0  0  0  0  0  0
    2.9708   -3.9470    0.0025 C   0  0  0  0  0  0  0  0  0  0  0  0
    2.4423   -2.6821    0.1414 C   0  0  0  0  0  0  0  0  0  0  0  0
    1.0879   -2.8423    0.3221 C   0  0  0  0  0  0  0  0  0  0  0  0
    0.8507   -4.1488    0.2878 N   0  0  0  0  0  0  0  0  0  0  0  0
    0.3632   -1.7130    0.4815 N   0  0  0  0  0  0  0  0  0  0  0  0
    0.9502   -0.5035    0.4620 C   0  0  0  0  0  0  0  0  0  0  0  0
    0.1308    0.6687    0.6368 N   0  0  0  0  0  0  0  0  0  0  0  0
   -1.2821    0.5413    0.8273 C   0  0  0  0  0  0  0  0  0  0  0  0
   -1.7950   -0.5890    0.8404 O   0  0  0  0  0  0  0  0  0  0  0  0
   -2.0947    1.7605    1.0036 C   0  0  0  0  0  0  0  0  0  0  0  0
   -3.4464    1.5114    1.1728 O   0  0  0  0  0  0  0  0  0  0  0  0
   -4.2298    0.9146    0.2108 C   0  0  0  0  0  0  0  0  0  0  0  0
   -5.5795    0.6944    0.5073 C   0  0  0  0  0  0  0  0  0  0  0  0
   -6.4452    0.1077   -0.3844 C   0  0  0  0  0  0  0  0  0  0  0  0
   -5.9906   -0.2862   -1.6213 C   0  0  0  0  0  0  0  0  0  0  0  0
   -4.6673   -0.0775   -1.9301 C   0  0  0  0  0  0  0  0  0  0  0  0
   -3.7874    0.5184   -1.0256 C   0  0  0  0  0  0  0  0  0  0  0  0
    2.2708   -0.3185    0.2873 N   0  0  0  0  0  0  0  0  0  0  0  0
    3.0622    0.7530    0.2322 N   0  0  0  0  0  0  0  0  0  0  0  0
    4.3342    0.3619    0.0345 C   0  0  0  0  0  0  0  0  0  0  0  0
    4.3041   -0.9796   -0.0305 N   0  0  0  0  0  0  0  0  0  0  0  0
    3.0453   -1.4309    0.1219 C   0  0  0  0  0  0  0  0  0  0  0  0
    5.5287    1.2214   -0.0878 C   0  0  0  0  0  0  0  0  0  0  0  0
    5.5290    2.5252   -0.4755 C   0  0  0  0  0  0  0  0  0  0  0  0
    6.8476    2.9272   -0.4479 C   0  0  0  0  0  0  0  0  0  0  0  0
    7.6073    1.8500   -0.0429 C   0  0  0  0  0  0  0  0  0  0  0  0
    6.7658    0.8654    0.1560 O   0  0  0  0  0  0  0  0  0  0  0  0
    2.1278   -6.7164    1.0164 H   0  0  0  0  0  0  0  0  0  0  0  0
    1.2247   -6.6920   -0.5362 H   0  0  0  0  0  0  0  0  0  0  0  0
    3.0152   -6.5468   -0.5362 H   0  0  0  0  0  0  0  0  0  0  0  0
    4.0318   -4.1886   -0.1580 H   0  0  0  0  0  0  0  0  0  0  0  0
    0.5640    1.6031    0.6246 H   0  0  0  0  0  0  0  0  0  0  0  0
   -1.7271    2.2970    1.8907 H   0  0  0  0  0  0  0  0  0  0  0  0
   -1.9906    2.3510    0.0814 H   0  0  0  0  0  0  0  0  0  0  0  0
   -5.9621    1.0027    1.4915 H   0  0  0  0  0  0  0  0  0  0  0  0
   -7.4992   -0.0463   -0.1096 H   0  0  0  0  0  0  0  0  0  0  0  0
   -6.6701   -0.7575   -2.3467 H   0  0  0  0  0  0  0  0  0  0  0  0
   -4.2922   -0.3884   -2.9163 H   0  0  0  0  0  0  0  0  0  0  0  0
   -2.7346    0.6710   -1.3054 H   0  0  0  0  0  0  0  0  0  0  0  0
    4.6562    3.1340   -0.7539 H   0  0  0  0  0  0  0  0  0  0  0  0
    7.2259    3.9280   -0.7033 H   0  0  0  0  0  0  0  0  0  0  0  0
    8.6993    1.8228    0.0870 H   0  0  0  0  0  0  0  0  0  0  0  0
  1  2  1  0
  2  3  1  0
  3  4  2  0
  4  5  1  0
  5  6  2  0
  5  7  1  0
  7  8  2  0
  8  9  1  0
  9 10  1  0
 10 11  2  0
 10 12  1  0
 12 13  1  0
 13 14  1  0
 14 15  2  0
 15 16  1  0
 16 17  2  0
 17 18  1  0
 18 19  2  0
  8 20  1  0
 20 21  1  0
 21 22  2  0
 22 23  1  0
 23 24  2  0
 22 25  1  0
 25 26  2  0
 26 27  1  0
 27 28  2  0
 28 29  1  0
  6  2  1  0
 19 14  1  0
 24 20  1  0
 29 25  1  0
 24  4  1  0
  1 30  1  0
  1 31  1  0
  1 32  1  0
  3 33  1  0
  9 34  1  0
 12 35  1  0
 12 36  1  0
 15 37  1  0
 16 38  1  0
 17 39  1  0
 18 40  1  0
 19 41  1  0
 26 42  1  0
 27 43  1  0
 28 44  1  0
M  END
>  <Original_Name>  (47) 
CHEMBL573589

>  <ROSHAMBO_ComboTanimoto>  (47) 
0.867

>  <ROSHAMBO_ShapeTanimoto>  (47) 
0.531

>  <ROSHAMBO_ColorTanimoto>  (47) 
0.336

>  <ROSHAMBO_FitTverskyCombo>  (47) 
1.121

>  <ROSHAMBO_FitTversky>  (47) 
0.646

>  <ROSHAMBO_FitColorTversky>  (47) 
0.474

>  <ROSHAMBO_RefTverskyCombo>  (47) 
1.283

>  <ROSHAMBO_RefTversky>  (47) 
0.747

>  <ROSHAMBO_RefColorTversky>  (47) 
0.536

>  <ROSHAMBO_Overlap>  (47) 
927.667

$$$$
CHEMBL260615_0_72
     RDKit          3D

 33 35  0  0  0  0  0  0  0  0999 V2000
   -1.1168   -2.3573   -0.0141 N   0  0  0  0  0  0  0  0  0  0  0  0
   -0.0570   -1.8553   -0.0344 C   0  0  0  0  0  0  0  0  0  0  0  0
    1.2448   -1.2285   -0.0789 C   0  0  0  0  0  0  0  0  0  0  0  0
    1.4171    0.1313    0.0590 C   0  0  0  0  0  0  0  0  0  0  0  0
    0.2469    0.9794    0.2544 C   0  0  0  0  0  0  0  0  0  0  0  0
    0.2098    1.9598    1.2350 C   0  0  0  0  0  0  0  0  0  0  0  0
   -0.8962    2.7578    1.4051 C   0  0  0  0  0  0  0  0  0  0  0  0
   -2.0056    2.6123    0.6087 C   0  0  0  0  0  0  0  0  0  0  0  0
   -1.9671    1.6370   -0.3661 C   0  0  0  0  0  0  0  0  0  0  0  0
   -0.8509    0.8199   -0.5499 C   0  0  0  0  0  0  0  0  0  0  0  0
    2.6727    0.6713    0.0171 N   0  0  0  0  0  0  0  0  0  0  0  0
    3.7621   -0.0903   -0.1572 C   0  0  0  0  0  0  0  0  0  0  0  0
    5.1245    0.4136   -0.2118 C   0  0  0  0  0  0  0  0  0  0  0  0
    6.1803   -0.4524   -0.3957 C   0  0  0  0  0  0  0  0  0  0  0  0
    7.4754   -0.0179   -0.4527 C   0  0  0  0  0  0  0  0  0  0  0  0
    7.7809    1.3121   -0.3279 C   0  0  0  0  0  0  0  0  0  0  0  0
    6.7327    2.1852   -0.1438 C   0  0  0  0  0  0  0  0  0  0  0  0
    5.4290    1.7514   -0.0860 C   0  0  0  0  0  0  0  0  0  0  0  0
    3.5633   -1.4072   -0.2885 N   0  0  0  0  0  0  0  0  0  0  0  0
    2.3823   -2.0025   -0.2586 C   0  0  0  0  0  0  0  0  0  0  0  0
    2.2239   -3.4070   -0.4029 N   0  0  0  0  0  0  0  0  0  0  0  0
    1.0827    2.1014    1.8893 H   0  0  0  0  0  0  0  0  0  0  0  0
   -0.8928    3.5259    2.1924 H   0  0  0  0  0  0  0  0  0  0  0  0
   -2.8919    3.2498    0.7431 H   0  0  0  0  0  0  0  0  0  0  0  0
   -2.8423    1.4992   -1.0179 H   0  0  0  0  0  0  0  0  0  0  0  0
   -0.8523    0.0513   -1.3369 H   0  0  0  0  0  0  0  0  0  0  0  0
    5.9745   -1.5280   -0.5000 H   0  0  0  0  0  0  0  0  0  0  0  0
    8.2850   -0.7476   -0.6011 H   0  0  0  0  0  0  0  0  0  0  0  0
    8.8209    1.6675   -0.3730 H   0  0  0  0  0  0  0  0  0  0  0  0
    6.9437    3.2598   -0.0400 H   0  0  0  0  0  0  0  0  0  0  0  0
    4.6195    2.4813    0.0624 H   0  0  0  0  0  0  0  0  0  0  0  0
    1.2830   -3.8250   -0.3728 H   0  0  0  0  0  0  0  0  0  0  0  0
    3.0500   -4.0073   -0.5376 H   0  0  0  0  0  0  0  0  0  0  0  0
  1  2  3  0
  2  3  1  0
  3  4  2  0
  4  5  1  0
  5  6  2  0
  6  7  1  0
  7  8  2  0
  8  9  1  0
  9 10  2  0
  4 11  1  0
 11 12  2  0
 12 13  1  0
 13 14  2  0
 14 15  1  0
 15 16  2  0
 16 17  1  0
 17 18  2  0
 12 19  1  0
 19 20  2  0
 20 21  1  0
 20  3  1  0
 10  5  1  0
 18 13  1  0
  6 22  1  0
  7 23  1  0
  8 24  1  0
  9 25  1  0
 10 26  1  0
 14 27  1  0
 15 28  1  0
 16 29  1  0
 17 30  1  0
 18 31  1  0
 21 32  1  0
 21 33  1  0
M  END
>  <Original_Name>  (48) 
CHEMBL260615

>  <ROSHAMBO_ComboTanimoto>  (48) 
0.861

>  <ROSHAMBO_ShapeTanimoto>  (48) 
0.555

>  <ROSHAMBO_ColorTanimoto>  (48) 
0.307

>  <ROSHAMBO_FitTverskyCombo>  (48) 
1.391

>  <ROSHAMBO_FitTversky>  (48) 
0.785

>  <ROSHAMBO_FitColorTversky>  (48) 
0.605

>  <ROSHAMBO_RefTverskyCombo>  (48) 
1.037

>  <ROSHAMBO_RefTversky>  (48) 
0.654

>  <ROSHAMBO_RefColorTversky>  (48) 
0.383

>  <ROSHAMBO_Overlap>  (48) 
797.165

$$$$
CHEMBL124788_0_77
     RDKit          3D

 38 41  0  0  0  0  0  0  0  0999 V2000
   -1.2621   -4.9708   -2.9906 C   0  0  0  0  0  0  0  0  0  0  0  0
   -1.2868   -4.1039   -1.7323 C   0  0  0  0  0  0  0  0  0  0  0  0
   -0.3249   -4.6503   -0.7317 C   0  0  0  0  0  0  0  0  0  0  0  0
   -0.2474   -3.8806    0.5552 C   0  0  0  0  0  0  0  0  0  0  0  0
    0.1783   -2.4628    0.3414 C   0  0  0  0  0  0  0  0  0  0  0  0
    1.4968   -2.1302    0.3511 N   0  0  0  0  0  0  0  0  0  0  0  0
    1.9475   -0.8879    0.1722 C   0  0  0  0  0  0  0  0  0  0  0  0
    3.1412   -0.2676    0.1293 N   0  0  0  0  0  0  0  0  0  0  0  0
    2.9198    1.0372   -0.0921 C   0  0  0  0  0  0  0  0  0  0  0  0
    1.6124    1.3047   -0.1981 N   0  0  0  0  0  0  0  0  0  0  0  0
    0.9506    0.1518   -0.0436 C   0  0  0  0  0  0  0  0  0  0  0  0
   -0.3925   -0.2203   -0.0479 C   0  0  0  0  0  0  0  0  0  0  0  0
   -1.5196    0.5033   -0.2151 N   0  0  0  0  0  0  0  0  0  0  0  0
   -2.5729   -0.3266   -0.1288 C   0  0  0  0  0  0  0  0  0  0  0  0
   -3.9863    0.0530   -0.2533 C   0  0  0  0  0  0  0  0  0  0  0  0
   -4.9900   -0.8829   -0.1477 C   0  0  0  0  0  0  0  0  0  0  0  0
   -6.3216   -0.4927   -0.2702 C   0  0  0  0  0  0  0  0  0  0  0  0
   -6.6871    0.8184   -0.4977 C   0  0  0  0  0  0  0  0  0  0  0  0
   -5.6749    1.7505   -0.6023 C   0  0  0  0  0  0  0  0  0  0  0  0
   -4.3443    1.3641   -0.4804 C   0  0  0  0  0  0  0  0  0  0  0  0
   -3.0752    2.5470   -0.6139 Cl  0  0  0  0  0  0  0  0  0  0  0  0
   -2.0906   -1.5619    0.0917 N   0  0  0  0  0  0  0  0  0  0  0  0
   -0.7506   -1.5076    0.1428 N   0  0  0  0  0  0  0  0  0  0  0  0
   -1.2318   -6.0323   -2.7039 H   0  0  0  0  0  0  0  0  0  0  0  0
   -2.1661   -4.7776   -3.5868 H   0  0  0  0  0  0  0  0  0  0  0  0
   -0.3706   -4.7264   -3.5868 H   0  0  0  0  0  0  0  0  0  0  0  0
   -1.0006   -3.0738   -1.9913 H   0  0  0  0  0  0  0  0  0  0  0  0
   -2.3006   -4.1070   -1.3054 H   0  0  0  0  0  0  0  0  0  0  0  0
   -0.6260   -5.6816   -0.4956 H   0  0  0  0  0  0  0  0  0  0  0  0
    0.6717   -4.5829   -1.1924 H   0  0  0  0  0  0  0  0  0  0  0  0
   -1.2394   -3.8847    1.0306 H   0  0  0  0  0  0  0  0  0  0  0  0
    0.5050   -4.3662    1.1941 H   0  0  0  0  0  0  0  0  0  0  0  0
    3.7142    1.7934   -0.1761 H   0  0  0  0  0  0  0  0  0  0  0  0
   -4.7407   -1.9388    0.0335 H   0  0  0  0  0  0  0  0  0  0  0  0
   -7.1088   -1.2560   -0.1827 H   0  0  0  0  0  0  0  0  0  0  0  0
   -7.7438    1.1091   -0.5919 H   0  0  0  0  0  0  0  0  0  0  0  0
   -5.9222    2.8070   -0.7835 H   0  0  0  0  0  0  0  0  0  0  0  0
   -2.6586   -2.4138    0.2035 H   0  0  0  0  0  0  0  0  0  0  0  0
  1  2  1  0
  2  3  1  0
  3  4  1  0
  4  5  1  0
  5  6  2  0
  6  7  1  0
  7  8  2  0
  8  9  1  0
  9 10  2  0
 10 11  1  0
 11 12  2  0
 12 13  1  0
 13 14  2  0
 14 15  1  0
 15 16  2  0
 16 17  1  0
 17 18  2  0
 18 19  1  0
 19 20  2  0
 20 21  1  0
 14 22  1  0
 22 23  1  0
 23  5  1  0
 11  7  1  0
 23 12  1  0
 20 15  1  0
  1 24  1  0
  1 25  1  0
  1 26  1  0
  2 27  1  0
  2 28  1  0
  3 29  1  0
  3 30  1  0
  4 31  1  0
  4 32  1  0
  9 33  1  0
 16 34  1  0
 17 35  1  0
 18 36  1  0
 19 37  1  0
 22 38  1  0
M  END
>  <Original_Name>  (49) 
CHEMBL124788

>  <ROSHAMBO_ComboTanimoto>  (49) 
0.859

>  <ROSHAMBO_ShapeTanimoto>  (49) 
0.54

>  <ROSHAMBO_ColorTanimoto>  (49) 
0.319

>  <ROSHAMBO_FitTverskyCombo>  (49) 
1.184

>  <ROSHAMBO_FitTversky>  (49) 
0.735

>  <ROSHAMBO_FitColorTversky>  (49) 
0.449

>  <ROSHAMBO_RefTverskyCombo>  (49) 
1.195

>  <ROSHAMBO_RefTversky>  (49) 
0.671

>  <ROSHAMBO_RefColorTversky>  (49) 
0.524

>  <ROSHAMBO_Overlap>  (49) 
821.393

$$$$
CHEMBL398272_0_2
     RDKit          3D

 48 51  0  0  0  0  0  0  0  0999 V2000
   -7.5463    0.4080   -0.7318 C   0  0  0  0  0  0  0  0  0  0  0  0
   -6.5882    0.3892    0.3814 N   0  0  0  0  0  4  0  0  0  0  0  0
   -6.2260    1.7028    0.7576 C   0  0  0  0  0  0  0  0  0  0  0  0
   -4.9348    2.2295    0.2408 C   0  0  0  0  0  0  0  0  0  0  0  0
   -3.9405    1.1681    0.1490 N   0  0  0  0  0  0  0  0  0  0  0  0
   -2.6309    1.6216    0.0682 C   0  0  0  0  0  0  0  0  0  0  0  0
   -1.5658    0.6389    0.1115 C   0  0  0  0  0  0  0  0  0  0  0  0
   -1.7534   -0.5928    0.2316 O   0  0  0  0  0  0  0  0  0  0  0  0
   -0.1678    1.0126    0.0179 N   0  0  0  0  0  0  0  0  0  0  0  0
    0.8820    0.0748    0.0584 C   0  0  0  0  0  0  0  0  0  0  0  0
    2.1651    0.5642   -0.0392 C   0  0  0  0  0  0  0  0  0  0  0  0
    3.2758   -0.2635   -0.0119 C   0  0  0  0  0  0  0  0  0  0  0  0
    4.6226    0.2751   -0.1139 C   0  0  0  0  0  0  0  0  0  0  0  0
    5.8354   -0.1328   -0.1502 N   0  0  0  0  0  0  0  0  0  0  0  0
    6.8743    0.5955   -0.2526 C   0  0  0  0  0  0  0  0  0  0  0  0
    6.7329    1.9755   -0.3371 C   0  0  0  0  0  0  0  0  0  0  0  0
    4.9078    2.1100   -0.2515 S   0  0  0  0  0  0  0  0  0  0  0  0
    3.0404   -1.5716    0.1152 N   0  0  0  0  0  0  0  0  0  0  0  0
    1.7958   -2.0677    0.2120 C   0  0  0  0  0  0  0  0  0  0  0  0
    1.5903   -3.4981    0.3515 C   0  0  0  0  0  0  0  0  0  0  0  0
    0.3912   -4.1620    0.3297 C   0  0  0  0  0  0  0  0  0  0  0  0
    0.6460   -5.4883    0.4942 C   0  0  0  0  0  0  0  0  0  0  0  0
    2.0216   -5.6040    0.6146 C   0  0  0  0  0  0  0  0  0  0  0  0
    2.5139   -4.3924    0.5212 O   0  0  0  0  0  0  0  0  0  0  0  0
    0.7263   -1.2365    0.1822 N   0  0  0  0  0  0  0  0  0  0  0  0
   -4.3969    0.1244   -0.7120 C   0  0  0  0  0  0  0  0  0  0  0  0
   -5.5521   -0.5141    0.0258 C   0  0  0  0  0  0  0  0  0  0  0  0
   -8.5713    0.4281   -0.3331 H   0  0  0  0  0  0  0  0  0  0  0  0
   -7.3749    1.3029   -1.3480 H   0  0  0  0  0  0  0  0  0  0  0  0
   -7.4102   -0.4930   -1.3480 H   0  0  0  0  0  0  0  0  0  0  0  0
   -6.9836    0.0267    1.2608 H   0  0  0  0  0  0  0  0  0  0  0  0
   -7.0214    2.3776    0.4084 H   0  0  0  0  0  0  0  0  0  0  0  0
   -6.0957    1.6579    1.8490 H   0  0  0  0  0  0  0  0  0  0  0  0
   -5.0956    2.6600   -0.7587 H   0  0  0  0  0  0  0  0  0  0  0  0
   -4.5654    2.9985    0.9351 H   0  0  0  0  0  0  0  0  0  0  0  0
   -2.5323    2.1690   -0.8808 H   0  0  0  0  0  0  0  0  0  0  0  0
   -2.4904    2.2189    0.9812 H   0  0  0  0  0  0  0  0  0  0  0  0
    0.0682    2.0101   -0.0829 H   0  0  0  0  0  0  0  0  0  0  0  0
    2.3135    1.6492   -0.1425 H   0  0  0  0  0  0  0  0  0  0  0  0
    7.8740    0.1372   -0.2741 H   0  0  0  0  0  0  0  0  0  0  0  0
    7.4972    2.7613   -0.4290 H   0  0  0  0  0  0  0  0  0  0  0  0
   -0.6006   -3.7038    0.2019 H   0  0  0  0  0  0  0  0  0  0  0  0
   -0.0912   -6.3041    0.5254 H   0  0  0  0  0  0  0  0  0  0  0  0
    2.5911   -6.5337    0.7605 H   0  0  0  0  0  0  0  0  0  0  0  0
   -4.7335    0.5366   -1.6746 H   0  0  0  0  0  0  0  0  0  0  0  0
   -3.6015   -0.6003   -0.9406 H   0  0  0  0  0  0  0  0  0  0  0  0
   -5.9821   -1.2958   -0.6176 H   0  0  0  0  0  0  0  0  0  0  0  0
   -5.1439   -0.9119    0.9667 H   0  0  0  0  0  0  0  0  0  0  0  0
  1  2  1  0
  2  3  1  0
  3  4  1  0
  4  5  1  0
  5  6  1  0
  6  7  1  0
  7  8  2  0
  7  9  1  0
  9 10  1  0
 10 11  2  0
 11 12  1  0
 12 13  1  0
 13 14  2  0
 14 15  1  0
 15 16  2  0
 16 17  1  0
 12 18  2  0
 18 19  1  0
 19 20  1  0
 20 21  2  0
 21 22  1  0
 22 23  2  0
 23 24  1  0
 19 25  2  0
  5 26  1  0
 26 27  1  0
 27  2  1  0
 25 10  1  0
 17 13  1  0
 24 20  1  0
  1 28  1  0
  1 29  1  0
  1 30  1  0
  2 31  1  0
  3 32  1  0
  3 33  1  0
  4 34  1  0
  4 35  1  0
  6 36  1  0
  6 37  1  0
  9 38  1  0
 11 39  1  0
 15 40  1  0
 16 41  1  0
 21 42  1  0
 22 43  1  0
 23 44  1  0
 26 45  1  0
 26 46  1  0
 27 47  1  0
 27 48  1  0
M  CHG  1   2   1
M  END
>  <Original_Name>  (50) 
CHEMBL398272

>  <ROSHAMBO_ComboTanimoto>  (50) 
0.858

>  <ROSHAMBO_ShapeTanimoto>  (50) 
0.584

>  <ROSHAMBO_ColorTanimoto>  (50) 
0.274

>  <ROSHAMBO_FitTverskyCombo>  (50) 
1.177

>  <ROSHAMBO_FitTversky>  (50) 
0.726

>  <ROSHAMBO_FitColorTversky>  (50) 
0.451

>  <ROSHAMBO_RefTverskyCombo>  (50) 
1.161

>  <ROSHAMBO_RefTversky>  (50) 
0.749

>  <ROSHAMBO_RefColorTversky>  (50) 
0.411

>  <ROSHAMBO_Overlap>  (50) 
923.737

$$$$
CHEMBL106265_0_89
     RDKit          3D

 34 36  0  0  0  0  0  0  0  0999 V2000
    1.6043   -3.3027   -0.1864 C   0  0  0  0  0  0  0  0  0  0  0  0
    1.3501   -1.9000    0.0392 N   0  0  0  0  0  0  0  0  0  0  0  0
    0.1097   -1.4185   -0.0057 C   0  0  0  0  0  0  0  0  0  0  0  0
   -0.0939   -0.0638    0.2166 C   0  0  0  0  0  0  0  0  0  0  0  0
   -1.4297    0.1275    0.1093 N   0  0  0  0  0  0  0  0  0  0  0  0
   -2.0426   -1.0339   -0.1647 C   0  0  0  0  0  0  0  0  0  0  0  0
   -3.5078   -1.1893   -0.3481 C   0  0  0  0  0  0  0  0  0  0  0  0
   -4.2776   -0.7492    0.8955 C   0  0  0  0  0  0  0  0  0  0  0  0
   -5.6890   -0.6268    0.3069 C   0  0  0  0  0  0  0  0  0  0  0  0
   -5.3898    0.2296   -0.9226 C   0  0  0  0  0  0  0  0  0  0  0  0
   -4.0143   -0.2146   -1.3893 C   0  0  0  0  0  0  0  0  0  0  0  0
   -1.0896   -1.9779   -0.2336 N   0  0  0  0  0  0  0  0  0  0  0  0
    0.9821    0.7505    0.4772 C   0  0  0  0  0  0  0  0  0  0  0  0
    0.7869    1.9826    0.6783 O   0  0  0  0  0  0  0  0  0  0  0  0
    2.2102    0.2184    0.5117 N   0  0  0  0  0  0  0  0  0  0  0  0
    3.3329    1.0897    0.7876 C   0  0  0  0  0  0  0  0  0  0  0  0
    2.3838   -1.0853    0.2955 C   0  0  0  0  0  0  0  0  0  0  0  0
    3.5635   -1.5261    0.3412 O   0  0  0  0  0  0  0  0  0  0  0  0
    1.6977   -3.8185    0.7807 H   0  0  0  0  0  0  0  0  0  0  0  0
    0.7706   -3.7394   -0.7559 H   0  0  0  0  0  0  0  0  0  0  0  0
    2.5381   -3.4192   -0.7559 H   0  0  0  0  0  0  0  0  0  0  0  0
   -3.6590   -2.2486   -0.6033 H   0  0  0  0  0  0  0  0  0  0  0  0
   -4.2322   -1.5058    1.6926 H   0  0  0  0  0  0  0  0  0  0  0  0
   -3.8963    0.1632    1.3772 H   0  0  0  0  0  0  0  0  0  0  0  0
   -6.1026   -1.6078    0.0304 H   0  0  0  0  0  0  0  0  0  0  0  0
   -6.4418   -0.2083    0.9912 H   0  0  0  0  0  0  0  0  0  0  0  0
   -6.1396    0.0531   -1.7079 H   0  0  0  0  0  0  0  0  0  0  0  0
   -5.4196    1.3050   -0.6930 H   0  0  0  0  0  0  0  0  0  0  0  0
   -4.0855   -0.7076   -2.3700 H   0  0  0  0  0  0  0  0  0  0  0  0
   -3.3334    0.6421   -1.5002 H   0  0  0  0  0  0  0  0  0  0  0  0
   -1.2532   -2.9756   -0.4305 H   0  0  0  0  0  0  0  0  0  0  0  0
    3.4612    1.1891    1.8756 H   0  0  0  0  0  0  0  0  0  0  0  0
    4.2460    0.6613    0.3485 H   0  0  0  0  0  0  0  0  0  0  0  0
    3.1448    2.0805    0.3485 H   0  0  0  0  0  0  0  0  0  0  0  0
  1  2  1  0
  2  3  1  0
  3  4  2  0
  4  5  1  0
  5  6  2  0
  6  7  1  0
  7  8  1  0
  8  9  1  0
  9 10  1  0
 10 11  1  0
  6 12  1  0
  4 13  1  0
 13 14  2  0
 13 15  1  0
 15 16  1  0
 15 17  1  0
 17 18  2  0
 17  2  1  0
 12  3  1  0
 11  7  1  0
  1 19  1  0
  1 20  1  0
  1 21  1  0
  7 22  1  0
  8 23  1  0
  8 24  1  0
  9 25  1  0
  9 26  1  0
 10 27  1  0
 10 28  1  0
 11 29  1  0
 11 30  1  0
 12 31  1  0
 16 32  1  0
 16 33  1  0
 16 34  1  0
M  END
>  <Original_Name>  (51) 
CHEMBL106265

>  <ROSHAMBO_ComboTanimoto>  (51) 
0.856

>  <ROSHAMBO_ShapeTanimoto>  (51) 
0.606

>  <ROSHAMBO_ColorTanimoto>  (51) 
0.25

>  <ROSHAMBO_FitTverskyCombo>  (51) 
1.266

>  <ROSHAMBO_FitTversky>  (51) 
0.889

>  <ROSHAMBO_FitColorTversky>  (51) 
0.378

>  <ROSHAMBO_RefTverskyCombo>  (51) 
1.08

>  <ROSHAMBO_RefTversky>  (51) 
0.656

>  <ROSHAMBO_RefColorTversky>  (51) 
0.424

>  <ROSHAMBO_Overlap>  (51) 
795.502

$$$$
CHEMBL506250_0_32
     RDKit          3D

 28 30  0  0  0  0  0  0  0  0999 V2000
   -2.2703   -0.1007   -0.1468 N   0  0  0  0  0  0  0  0  0  0  0  0
   -0.9611   -0.0694    0.0167 C   0  0  0  0  0  0  0  0  0  0  0  0
    0.5179   -0.0241    0.2231 C   0  0  0  0  0  0  0  0  0  0  0  0
    1.0626   -1.2719   -0.0886 C   0  0  0  0  0  0  0  0  0  0  0  0
    0.1850   -2.4607    0.0900 C   0  0  0  0  0  0  0  0  0  0  0  0
   -0.1557   -3.6851   -0.2116 C   0  0  0  0  0  0  0  0  0  0  0  0
   -1.2958   -4.1313    0.5569 C   0  0  0  0  0  0  0  0  0  0  0  0
   -1.5945   -3.0195    1.3436 C   0  0  0  0  0  0  0  0  0  0  0  0
   -0.7895   -2.1511    1.0548 O   0  0  0  0  0  0  0  0  0  0  0  0
    2.4277   -1.2688   -0.2570 C   0  0  0  0  0  0  0  0  0  0  0  0
    3.1134   -0.1131   -0.0953 C   0  0  0  0  0  0  0  0  0  0  0  0
    4.6043    0.0122   -0.1983 C   0  0  0  0  0  0  0  0  0  0  0  0
    5.6041   -0.6613   -0.5942 C   0  0  0  0  0  0  0  0  0  0  0  0
    6.8548    0.0028   -0.4404 C   0  0  0  0  0  0  0  0  0  0  0  0
    6.3272    1.3045    0.1913 C   0  0  0  0  0  0  0  0  0  0  0  0
    5.1356    1.2021    0.2614 O   0  0  0  0  0  0  0  0  0  0  0  0
    2.5029    1.1246    0.2324 N   0  0  0  0  0  0  0  0  0  0  0  0
    1.1171    1.1446    0.3913 C   0  0  0  0  0  0  0  0  0  0  0  0
    0.5927    2.4533    0.5040 N   0  0  0  0  0  0  0  0  0  0  0  0
    0.3624   -4.3023   -0.9604 H   0  0  0  0  0  0  0  0  0  0  0  0
   -1.8027   -5.1072    0.5282 H   0  0  0  0  0  0  0  0  0  0  0  0
   -2.4037   -2.9409    2.0846 H   0  0  0  0  0  0  0  0  0  0  0  0
    2.9570   -2.1964   -0.5205 H   0  0  0  0  0  0  0  0  0  0  0  0
    5.5128   -1.6715   -1.0197 H   0  0  0  0  0  0  0  0  0  0  0  0
    7.8772   -0.3146   -0.6934 H   0  0  0  0  0  0  0  0  0  0  0  0
    6.9301    2.1652    0.5165 H   0  0  0  0  0  0  0  0  0  0  0  0
   -0.4204    2.5934    0.6253 H   0  0  0  0  0  0  0  0  0  0  0  0
    1.2241    3.2662    0.4648 H   0  0  0  0  0  0  0  0  0  0  0  0
  1  2  3  0
  2  3  1  0
  3  4  2  0
  4  5  1  0
  5  6  2  0
  6  7  1  0
  7  8  2  0
  8  9  1  0
  4 10  1  0
 10 11  2  0
 11 12  1  0
 12 13  2  0
 13 14  1  0
 14 15  2  0
 15 16  1  0
 11 17  1  0
 17 18  2  0
 18 19  1  0
 18  3  1  0
  9  5  1  0
 16 12  1  0
  6 20  1  0
  7 21  1  0
  8 22  1  0
 10 23  1  0
 13 24  1  0
 14 25  1  0
 15 26  1  0
 19 27  1  0
 19 28  1  0
M  END
>  <Original_Name>  (52) 
CHEMBL506250

>  <ROSHAMBO_ComboTanimoto>  (52) 
0.853

>  <ROSHAMBO_ShapeTanimoto>  (52) 
0.574

>  <ROSHAMBO_ColorTanimoto>  (52) 
0.279

>  <ROSHAMBO_FitTverskyCombo>  (52) 
1.439

>  <ROSHAMBO_FitTversky>  (52) 
0.837

>  <ROSHAMBO_FitColorTversky>  (52) 
0.601

>  <ROSHAMBO_RefTverskyCombo>  (52) 
0.988

>  <ROSHAMBO_RefTversky>  (52) 
0.646

>  <ROSHAMBO_RefColorTversky>  (52) 
0.342

>  <ROSHAMBO_Overlap>  (52) 
785.048

$$$$
CHEMBL209366_1_17
     RDKit          3D

 48 51  0  0  0  0  0  0  0  0999 V2000
    7.6568   -1.8223    0.0566 C   0  0  0  0  0  0  0  0  0  0  0  0
    8.0788   -0.4102   -0.2125 C   0  0  0  0  0  0  0  0  0  0  0  0
    7.1677    0.3244   -1.1398 C   0  0  0  0  0  0  0  0  0  0  0  0
    5.7970    0.4200   -0.6337 N   0  0  0  0  0  0  0  0  0  0  0  0
    5.5099    1.4892    0.1344 C   0  0  0  0  0  0  0  0  0  0  0  0
    6.4307    2.3413    0.3760 O   0  0  0  0  0  0  0  0  0  0  0  0
    4.2798    1.6653    0.6422 N   0  0  0  0  0  0  0  0  0  0  0  0
    3.3193    0.7342    0.3635 C   0  0  0  0  0  0  0  0  0  0  0  0
    3.6049   -0.3610   -0.4206 C   0  0  0  0  0  0  0  0  0  0  0  0
    2.4734   -1.0957   -0.5200 N   0  0  0  0  0  0  0  0  0  0  0  0
    1.5203   -0.4840    0.1737 C   0  0  0  0  0  0  0  0  0  0  0  0
    2.0341    0.6336    0.7143 N   0  0  0  0  0  0  0  0  0  0  0  0
    0.1148   -0.8973    0.3658 C   0  0  0  0  0  0  0  0  0  0  0  0
   -0.3714   -2.0522   -0.2071 C   0  0  0  0  0  0  0  0  0  0  0  0
   -1.6931   -2.4435   -0.0281 C   0  0  0  0  0  0  0  0  0  0  0  0
   -2.5722   -1.6977    0.7267 C   0  0  0  0  0  0  0  0  0  0  0  0
   -2.0846   -0.5437    1.2986 C   0  0  0  0  0  0  0  0  0  0  0  0
   -0.7676   -0.1548    1.1196 C   0  0  0  0  0  0  0  0  0  0  0  0
   -4.2407   -2.2113    0.9402 S   0  0  0  0  0  6  0  0  0  0  0  0
   -4.7080   -1.8113    2.3136 O   0  0  0  0  0  0  0  0  0  0  0  0
   -4.3465   -3.7181    0.8730 O   0  0  0  0  0  0  0  0  0  0  0  0
   -5.2021   -1.5479   -0.3029 N   0  0  0  0  0  2  0  0  0  0  0  0
   -5.3699   -0.1533   -0.5011 C   0  0  0  0  0  0  0  0  0  0  0  0
   -6.3900    0.5391    0.1170 C   0  0  0  0  0  0  0  0  0  0  0  0
   -6.5484    1.9010   -0.0808 C   0  0  0  0  0  0  0  0  0  0  0  0
   -5.6870    2.6131   -0.9065 C   0  0  0  0  0  0  0  0  0  0  0  0
   -4.6713    1.9082   -1.5183 C   0  0  0  0  0  0  0  0  0  0  0  0
   -4.5084    0.5507   -1.3249 C   0  0  0  0  0  0  0  0  0  0  0  0
    4.8864   -0.5224   -0.9357 C   0  0  0  0  0  0  0  0  0  0  0  0
    5.1426   -1.5053   -1.6399 O   0  0  0  0  0  0  0  0  0  0  0  0
    7.6069   -1.9893    1.1427 H   0  0  0  0  0  0  0  0  0  0  0  0
    6.6663   -1.9999   -0.3876 H   0  0  0  0  0  0  0  0  0  0  0  0
    8.3874   -2.5143   -0.3876 H   0  0  0  0  0  0  0  0  0  0  0  0
    8.1095    0.1311    0.7446 H   0  0  0  0  0  0  0  0  0  0  0  0
    9.0632   -0.4574   -0.7011 H   0  0  0  0  0  0  0  0  0  0  0  0
    7.5601    1.3417   -1.2850 H   0  0  0  0  0  0  0  0  0  0  0  0
    7.1327   -0.2391   -2.0839 H   0  0  0  0  0  0  0  0  0  0  0  0
    4.0648    2.4841    1.2288 H   0  0  0  0  0  0  0  0  0  0  0  0
    1.5203    1.3041    1.3036 H   0  0  0  0  0  0  0  0  0  0  0  0
    0.2985   -2.6759   -0.8172 H   0  0  0  0  0  0  0  0  0  0  0  0
   -2.0462   -3.3719   -0.5008 H   0  0  0  0  0  0  0  0  0  0  0  0
   -2.7536    0.0807    1.9089 H   0  0  0  0  0  0  0  0  0  0  0  0
   -0.4158    0.7738    1.5929 H   0  0  0  0  0  0  0  0  0  0  0  0
   -7.0878    0.0022    0.7764 H   0  0  0  0  0  0  0  0  0  0  0  0
   -7.3708    2.4282    0.4248 H   0  0  0  0  0  0  0  0  0  0  0  0
   -5.8099    3.6946   -1.0657 H   0  0  0  0  0  0  0  0  0  0  0  0
   -3.9719    2.4422   -2.1783 H   0  0  0  0  0  0  0  0  0  0  0  0
   -3.6859    0.0235   -1.8305 H   0  0  0  0  0  0  0  0  0  0  0  0
  1  2  1  0
  2  3  1  0
  3  4  1  0
  4  5  1  0
  5  6  2  0
  5  7  1  0
  7  8  1  0
  8  9  2  0
  9 10  1  0
 10 11  2  0
 11 12  1  0
 11 13  1  0
 13 14  2  0
 14 15  1  0
 15 16  2  0
 16 17  1  0
 17 18  2  0
 16 19  1  0
 19 20  2  0
 19 21  2  0
 19 22  1  0
 22 23  1  0
 23 24  2  0
 24 25  1  0
 25 26  2  0
 26 27  1  0
 27 28  2  0
  9 29  1  0
 29 30  2  0
 29  4  1  0
 12  8  1  0
 18 13  1  0
 28 23  1  0
  1 31  1  0
  1 32  1  0
  1 33  1  0
  2 34  1  0
  2 35  1  0
  3 36  1  0
  3 37  1  0
  7 38  1  0
 12 39  1  0
 14 40  1  0
 15 41  1  0
 17 42  1  0
 18 43  1  0
 24 44  1  0
 25 45  1  0
 26 46  1  0
 27 47  1  0
 28 48  1  0
M  CHG  1  22  -1
M  END
>  <Original_Name>  (53) 
CHEMBL209366

>  <ROSHAMBO_ComboTanimoto>  (53) 
0.851

>  <ROSHAMBO_ShapeTanimoto>  (53) 
0.685

>  <ROSHAMBO_ColorTanimoto>  (53) 
0.166

>  <ROSHAMBO_FitTverskyCombo>  (53) 
1.017

>  <ROSHAMBO_FitTversky>  (53) 
0.764

>  <ROSHAMBO_FitColorTversky>  (53) 
0.253

>  <ROSHAMBO_RefTverskyCombo>  (53) 
1.194

>  <ROSHAMBO_RefTversky>  (53) 
0.869

>  <ROSHAMBO_RefColorTversky>  (53) 
0.324

>  <ROSHAMBO_Overlap>  (53) 
1077.923

$$$$
CHEMBL77279_0_63
     RDKit          3D

 59 61  0  0  0  0  0  0  0  0999 V2000
    1.9082   -5.4167   -0.6558 C   0  0  0  0  0  0  0  0  0  0  0  0
    2.2932   -3.9660   -0.9299 C   0  0  0  0  0  0  0  0  0  0  0  0
    2.3944   -3.2746    0.4030 C   0  0  0  0  0  0  0  0  0  0  0  0
    2.7502   -1.8976    0.3162 N   0  0  0  0  0  0  0  0  0  0  0  0
    1.7484   -0.9859    0.2120 C   0  0  0  0  0  0  0  0  0  0  0  0
    1.9823    0.3677    0.1223 C   0  0  0  0  0  0  0  0  0  0  0  0
    0.8152    1.0069    0.0318 N   0  0  0  0  0  0  0  0  0  0  0  0
   -0.1792    0.1051    0.0600 C   0  0  0  0  0  0  0  0  0  0  0  0
   -1.6218    0.3697   -0.0136 C   0  0  0  0  0  0  0  0  0  0  0  0
   -2.4867   -0.6139    0.0253 C   0  0  0  0  0  0  0  0  0  0  0  0
   -3.9175   -0.3856   -0.0452 C   0  0  0  0  0  0  0  0  0  0  0  0
   -4.5120    0.8482   -0.1572 C   0  0  0  0  0  0  0  0  0  0  0  0
   -5.8996    1.0099   -0.2213 C   0  0  0  0  0  0  0  0  0  0  0  0
   -6.4773    2.2668   -0.3344 O   0  0  0  0  0  0  0  0  0  0  0  0
   -5.6227    3.3876   -0.3836 C   0  0  0  0  0  0  0  0  0  0  0  0
   -6.7280   -0.0654   -0.1744 C   0  0  0  0  0  0  0  0  0  0  0  0
   -8.0899    0.0225   -0.2321 O   0  0  0  0  0  0  0  0  0  0  0  0
   -8.9515    0.1578    0.8680 C   0  0  0  0  0  0  0  0  0  0  0  0
   -6.1563   -1.3292   -0.0610 C   0  0  0  0  0  0  0  0  0  0  0  0
   -6.9936   -2.4343   -0.0122 O   0  0  0  0  0  0  0  0  0  0  0  0
   -6.3973   -3.7107    0.1030 C   0  0  0  0  0  0  0  0  0  0  0  0
   -4.7849   -1.4689    0.0009 C   0  0  0  0  0  0  0  0  0  0  0  0
    0.3965   -1.1045    0.1697 N   0  0  0  0  0  0  0  0  0  0  0  0
    3.3237    0.7699    0.1436 C   0  0  0  0  0  0  0  0  0  0  0  0
    3.6116    1.9948    0.0653 O   0  0  0  0  0  0  0  0  0  0  0  0
    4.3128   -0.1317    0.2465 N   0  0  0  0  0  0  0  0  0  0  0  0
    5.6841    0.3099    0.2661 C   0  0  0  0  0  0  0  0  0  0  0  0
    6.2941    0.3880   -1.1197 C   0  0  0  0  0  0  0  0  0  0  0  0
    7.7330    0.8659   -0.9215 C   0  0  0  0  0  0  0  0  0  0  0  0
    4.0121   -1.4193    0.3289 C   0  0  0  0  0  0  0  0  0  0  0  0
    4.9363   -2.2575    0.4248 O   0  0  0  0  0  0  0  0  0  0  0  0
    1.8635   -5.5853    0.4303 H   0  0  0  0  0  0  0  0  0  0  0  0
    0.9237   -5.6250   -1.1001 H   0  0  0  0  0  0  0  0  0  0  0  0
    2.6599   -6.0858   -1.1001 H   0  0  0  0  0  0  0  0  0  0  0  0
    3.2613   -3.9247   -1.4506 H   0  0  0  0  0  0  0  0  0  0  0  0
    1.5434   -3.4763   -1.5686 H   0  0  0  0  0  0  0  0  0  0  0  0
    1.4190   -3.3487    0.9061 H   0  0  0  0  0  0  0  0  0  0  0  0
    3.1984   -3.7763    0.9615 H   0  0  0  0  0  0  0  0  0  0  0  0
   -1.9806    1.4058   -0.1025 H   0  0  0  0  0  0  0  0  0  0  0  0
   -2.1160   -1.6457    0.1143 H   0  0  0  0  0  0  0  0  0  0  0  0
   -3.8725    1.7422   -0.1981 H   0  0  0  0  0  0  0  0  0  0  0  0
   -5.3786    3.7078    0.6400 H   0  0  0  0  0  0  0  0  0  0  0  0
   -4.6973    3.1201   -0.9147 H   0  0  0  0  0  0  0  0  0  0  0  0
   -6.1258    4.2092   -0.9147 H   0  0  0  0  0  0  0  0  0  0  0  0
   -8.3737    0.0671    1.7996 H   0  0  0  0  0  0  0  0  0  0  0  0
   -9.4386    1.1435    0.8332 H   0  0  0  0  0  0  0  0  0  0  0  0
   -9.7173   -0.6311    0.8332 H   0  0  0  0  0  0  0  0  0  0  0  0
   -6.2784   -3.9652    1.1666 H   0  0  0  0  0  0  0  0  0  0  0  0
   -7.0384   -4.4603   -0.3839 H   0  0  0  0  0  0  0  0  0  0  0  0
   -5.4110   -3.7000   -0.3839 H   0  0  0  0  0  0  0  0  0  0  0  0
   -4.3614   -2.4802    0.0903 H   0  0  0  0  0  0  0  0  0  0  0  0
   -0.1162   -1.9967    0.2154 H   0  0  0  0  0  0  0  0  0  0  0  0
    5.7256    1.3085    0.7255 H   0  0  0  0  0  0  0  0  0  0  0  0
    6.2622   -0.4276    0.8422 H   0  0  0  0  0  0  0  0  0  0  0  0
    6.2829   -0.6024   -1.5984 H   0  0  0  0  0  0  0  0  0  0  0  0
    5.7289    1.0715   -1.7704 H   0  0  0  0  0  0  0  0  0  0  0  0
    7.9505    0.9381    0.1544 H   0  0  0  0  0  0  0  0  0  0  0  0
    8.4250    0.1493   -1.3881 H   0  0  0  0  0  0  0  0  0  0  0  0
    7.8588    1.8540   -1.3881 H   0  0  0  0  0  0  0  0  0  0  0  0
  1  2  1  0
  2  3  1  0
  3  4  1  0
  4  5  1  0
  5  6  2  0
  6  7  1  0
  7  8  2  0
  8  9  1  0
  9 10  2  3
 10 11  1  0
 11 12  2  0
 12 13  1  0
 13 14  1  0
 14 15  1  0
 13 16  2  0
 16 17  1  0
 17 18  1  0
 16 19  1  0
 19 20  1  0
 20 21  1  0
 19 22  2  0
  8 23  1  0
  6 24  1  0
 24 25  2  0
 24 26  1  0
 26 27  1  0
 27 28  1  0
 28 29  1  0
 26 30  1  0
 30 31  2  0
 30  4  1  0
 23  5  1  0
 22 11  1  0
  1 32  1  0
  1 33  1  0
  1 34  1  0
  2 35  1  0
  2 36  1  0
  3 37  1  0
  3 38  1  0
  9 39  1  0
 10 40  1  0
 12 41  1  0
 15 42  1  0
 15 43  1  0
 15 44  1  0
 18 45  1  0
 18 46  1  0
 18 47  1  0
 21 48  1  0
 21 49  1  0
 21 50  1  0
 22 51  1  0
 23 52  1  0
 27 53  1  0
 27 54  1  0
 28 55  1  0
 28 56  1  0
 29 57  1  0
 29 58  1  0
 29 59  1  0
M  END
>  <Original_Name>  (54) 
CHEMBL77279

>  <ROSHAMBO_ComboTanimoto>  (54) 
0.851

>  <ROSHAMBO_ShapeTanimoto>  (54) 
0.603

>  <ROSHAMBO_ColorTanimoto>  (54) 
0.248

>  <ROSHAMBO_FitTverskyCombo>  (54) 
1.039

>  <ROSHAMBO_FitTversky>  (54) 
0.698

>  <ROSHAMBO_FitColorTversky>  (54) 
0.341

>  <ROSHAMBO_RefTverskyCombo>  (54) 
1.292

>  <ROSHAMBO_RefTversky>  (54) 
0.815

>  <ROSHAMBO_RefColorTversky>  (54) 
0.477

>  <ROSHAMBO_Overlap>  (54) 
1012.786

$$$$
CHEMBL405234_0_37
     RDKit          3D

 31 33  0  0  0  0  0  0  0  0999 V2000
    3.6480   -1.9825   -0.3675 O   0  0  0  0  0  0  0  0  0  0  0  0
    3.7018   -0.7467   -0.1849 C   0  0  0  0  0  0  0  0  0  0  0  0
    4.9443   -0.0846   -0.2488 C   0  0  0  0  0  0  0  0  0  0  0  0
    6.1975   -0.4480   -0.5502 C   0  0  0  0  0  0  0  0  0  0  0  0
    7.2224    0.4094   -0.5078 C   0  0  0  0  0  0  0  0  0  0  0  0
    6.9682    1.7181   -0.1373 C   0  0  0  0  0  0  0  0  0  0  0  0
    5.1658    1.7090    0.1641 S   0  0  0  0  0  0  0  0  0  0  0  0
    2.4846   -0.0146    0.0891 C   0  0  0  0  0  0  0  0  0  0  0  0
    1.3160   -0.7415    0.2424 C   0  0  0  0  0  0  0  0  0  0  0  0
    0.9969   -2.4679    0.1785 S   0  0  0  0  0  0  0  0  0  0  0  0
   -0.7822   -2.3680    0.4922 C   0  0  0  0  0  0  0  0  0  0  0  0
   -0.9716   -1.0110    0.6188 C   0  0  0  0  0  0  0  0  0  0  0  0
    0.1026   -0.2188    0.4880 C   0  0  0  0  0  0  0  0  0  0  0  0
    0.1080    1.1752    0.5802 N   0  0  0  0  0  0  0  0  0  0  0  0
    1.2357    1.8507    0.4288 C   0  0  0  0  0  0  0  0  0  0  0  0
    1.1701    3.2864    0.5029 N   0  0  0  0  0  0  0  0  0  0  0  0
    1.1297    3.9871   -0.7756 C   0  0  0  0  0  0  0  0  0  0  0  0
   -0.1052    3.6118   -1.5664 C   0  0  0  0  0  0  0  0  0  0  0  0
   -0.1075    2.2358   -1.8104 O   0  0  0  0  0  0  0  0  0  0  0  0
    2.4540    1.3448    0.1849 N   0  0  0  0  0  0  0  0  0  0  0  0
    6.3907   -1.4904   -0.8435 H   0  0  0  0  0  0  0  0  0  0  0  0
    8.2418    0.0828   -0.7610 H   0  0  0  0  0  0  0  0  0  0  0  0
    7.6754    2.5558   -0.0467 H   0  0  0  0  0  0  0  0  0  0  0  0
   -1.5203   -3.1806    0.5632 H   0  0  0  0  0  0  0  0  0  0  0  0
   -1.9682   -0.5912    0.8200 H   0  0  0  0  0  0  0  0  0  0  0  0
    1.1527    3.7877    1.4024 H   0  0  0  0  0  0  0  0  0  0  0  0
    1.1214    5.0714   -0.5905 H   0  0  0  0  0  0  0  0  0  0  0  0
    2.0172    3.7000   -1.3586 H   0  0  0  0  0  0  0  0  0  0  0  0
   -1.0035    3.8829   -0.9923 H   0  0  0  0  0  0  0  0  0  0  0  0
   -0.1026    4.1519   -2.5246 H   0  0  0  0  0  0  0  0  0  0  0  0
   -0.1083    1.7479   -0.9490 H   0  0  0  0  0  0  0  0  0  0  0  0
  1  2  2  0
  2  3  1  0
  3  4  2  0
  4  5  1  0
  5  6  2  0
  6  7  1  0
  2  8  1  0
  8  9  2  0
  9 10  1  0
 10 11  1  0
 11 12  2  0
 12 13  1  0
 13 14  2  0
 14 15  1  0
 15 16  1  0
 16 17  1  0
 17 18  1  0
 18 19  1  0
 15 20  2  0
  7  3  1  0
 20  8  1  0
 13  9  1  0
  4 21  1  0
  5 22  1  0
  6 23  1  0
 11 24  1  0
 12 25  1  0
 16 26  1  0
 17 27  1  0
 17 28  1  0
 18 29  1  0
 18 30  1  0
 19 31  1  0
M  END
>  <Original_Name>  (55) 
CHEMBL405234

>  <ROSHAMBO_ComboTanimoto>  (55) 
0.848

>  <ROSHAMBO_ShapeTanimoto>  (55) 
0.557

>  <ROSHAMBO_ColorTanimoto>  (55) 
0.291

>  <ROSHAMBO_FitTverskyCombo>  (55) 
1.344

>  <ROSHAMBO_FitTversky>  (55) 
0.824

>  <ROSHAMBO_FitColorTversky>  (55) 
0.52

>  <ROSHAMBO_RefTverskyCombo>  (55) 
1.031

>  <ROSHAMBO_RefTversky>  (55) 
0.633

>  <ROSHAMBO_RefColorTversky>  (55) 
0.398

>  <ROSHAMBO_Overlap>  (55) 
768.56

$$$$
CHEMBL330982_0_6
     RDKit          3D

 36 40  0  0  0  0  0  0  0  0999 V2000
    3.6211   -1.6506   -0.0089 N   0  0  0  0  0  0  0  0  0  0  0  0
    2.2897   -1.5261    0.1031 N   0  0  0  0  0  0  0  0  0  0  0  0
    1.9837   -0.2183    0.1842 C   0  0  0  0  0  0  0  0  0  0  0  0
    3.1600    0.4313    0.1181 N   0  0  0  0  0  0  0  0  0  0  0  0
    4.1704   -0.4291   -0.0001 C   0  0  0  0  0  0  0  0  0  0  0  0
    5.5934   -0.0784   -0.0988 C   0  0  0  0  0  0  0  0  0  0  0  0
    6.5487   -1.0789   -0.2186 C   0  0  0  0  0  0  0  0  0  0  0  0
    7.8977   -0.7477   -0.3123 C   0  0  0  0  0  0  0  0  0  0  0  0
    8.2829    0.5671   -0.2863 C   0  0  0  0  0  0  0  0  0  0  0  0
    7.3199    1.5314   -0.1675 C   0  0  0  0  0  0  0  0  0  0  0  0
    5.9714    1.2455   -0.0719 C   0  0  0  0  0  0  0  0  0  0  0  0
    0.6834    0.2259    0.3076 C   0  0  0  0  0  0  0  0  0  0  0  0
    0.0797    1.4220    0.4076 N   0  0  0  0  0  0  0  0  0  0  0  0
   -1.2610    1.2596    0.5080 C   0  0  0  0  0  0  0  0  0  0  0  0
   -1.5487   -0.0686    0.4736 N   0  0  0  0  0  0  0  0  0  0  0  0
   -0.4026   -0.7594    0.3519 C   0  0  0  0  0  0  0  0  0  0  0  0
   -0.0216   -2.0458    0.2658 N   0  0  0  0  0  0  0  0  0  0  0  0
    1.2743   -2.4062    0.1464 C   0  0  0  0  0  0  0  0  0  0  0  0
    1.5495   -3.8336    0.0626 C   0  0  0  0  0  0  0  0  0  0  0  0
    1.0064   -4.6647    1.0206 C   0  0  0  0  0  0  0  0  0  0  0  0
    1.2532   -6.0244    0.9627 C   0  0  0  0  0  0  0  0  0  0  0  0
    2.0343   -6.5232   -0.0469 C   0  0  0  0  0  0  0  0  0  0  0  0
    2.5732   -5.6733   -1.0030 C   0  0  0  0  0  0  0  0  0  0  0  0
    2.3339   -4.3066   -0.9574 C   0  0  0  0  0  0  0  0  0  0  0  0
    4.1359   -2.5392   -0.0886 H   0  0  0  0  0  0  0  0  0  0  0  0
    6.2394   -2.1343   -0.2394 H   0  0  0  0  0  0  0  0  0  0  0  0
    8.6539   -1.5409   -0.4071 H   0  0  0  0  0  0  0  0  0  0  0  0
    9.3456    0.8417   -0.3595 H   0  0  0  0  0  0  0  0  0  0  0  0
    7.6342    2.5853   -0.1471 H   0  0  0  0  0  0  0  0  0  0  0  0
    5.2252    2.0482    0.0226 H   0  0  0  0  0  0  0  0  0  0  0  0
   -1.9978    2.0709    0.6021 H   0  0  0  0  0  0  0  0  0  0  0  0
    0.3815   -4.2490    1.8247 H   0  0  0  0  0  0  0  0  0  0  0  0
    0.8267   -6.6989    1.7198 H   0  0  0  0  0  0  0  0  0  0  0  0
    2.2353   -7.6033   -0.1000 H   0  0  0  0  0  0  0  0  0  0  0  0
    3.1982   -6.0882   -1.8075 H   0  0  0  0  0  0  0  0  0  0  0  0
    2.7581   -3.6280   -1.7120 H   0  0  0  0  0  0  0  0  0  0  0  0
  1  2  1  0
  2  3  1  0
  3  4  1  0
  4  5  2  0
  5  6  1  0
  6  7  2  0
  7  8  1  0
  8  9  2  0
  9 10  1  0
 10 11  2  0
  3 12  2  0
 12 13  1  0
 13 14  2  0
 14 15  1  0
 15 16  2  0
 16 17  1  0
 17 18  2  0
 18 19  1  0
 19 20  2  0
 20 21  1  0
 21 22  2  0
 22 23  1  0
 23 24  2  0
  5  1  1  0
 11  6  1  0
 16 12  1  0
 24 19  1  0
 18  2  1  0
  1 25  1  0
  7 26  1  0
  8 27  1  0
  9 28  1  0
 10 29  1  0
 11 30  1  0
 14 31  1  0
 20 32  1  0
 21 33  1  0
 22 34  1  0
 23 35  1  0
 24 36  1  0
M  END
>  <Original_Name>  (56) 
CHEMBL330982

>  <ROSHAMBO_ComboTanimoto>  (56) 
0.847

>  <ROSHAMBO_ShapeTanimoto>  (56) 
0.495

>  <ROSHAMBO_ColorTanimoto>  (56) 
0.352

>  <ROSHAMBO_FitTverskyCombo>  (56) 
1.201

>  <ROSHAMBO_FitTversky>  (56) 
0.669

>  <ROSHAMBO_FitColorTversky>  (56) 
0.532

>  <ROSHAMBO_RefTverskyCombo>  (56) 
1.166

>  <ROSHAMBO_RefTversky>  (56) 
0.656

>  <ROSHAMBO_RefColorTversky>  (56) 
0.51

>  <ROSHAMBO_Overlap>  (56) 
806.937

$$$$
CHEMBL1222145_0_24
     RDKit          3D

 38 40  0  0  0  0  0  0  0  0999 V2000
    6.9119   -0.4308   -0.1995 C   0  0  0  0  0  0  0  0  0  0  0  0
    5.7606    0.5166   -0.1734 C   0  0  0  0  0  0  0  0  0  0  0  0
    4.5214   -0.1740    0.0506 O   0  0  0  0  0  0  0  0  0  0  0  0
    3.3405    0.5244    0.1094 C   0  0  0  0  0  0  0  0  0  0  0  0
    3.4249    1.7760   -0.0432 O   0  0  0  0  0  0  0  0  0  0  0  0
    2.0233   -0.0381    0.3306 C   0  0  0  0  0  0  0  0  0  0  0  0
    1.5426   -1.2781    0.5063 C   0  0  0  0  0  0  0  0  0  0  0  0
    2.4003   -2.4842    0.4734 C   0  0  0  0  0  0  0  0  0  0  0  0
    2.4017   -3.4283    1.4706 C   0  0  0  0  0  0  0  0  0  0  0  0
    3.2098   -4.5656    1.3793 C   0  0  0  0  0  0  0  0  0  0  0  0
    4.0183   -4.7525    0.2813 C   0  0  0  0  0  0  0  0  0  0  0  0
    4.0187   -3.8116   -0.7164 C   0  0  0  0  0  0  0  0  0  0  0  0
    3.2099   -2.6845   -0.6141 C   0  0  0  0  0  0  0  0  0  0  0  0
    0.2432   -1.3912    0.7274 N   0  0  0  0  0  0  0  0  0  0  0  0
   -0.5641   -0.5788    0.7945 C   0  0  0  0  0  0  0  0  0  0  0  0
   -1.9586   -0.3594    1.0045 N   0  0  0  0  0  0  0  0  0  0  0  0
   -2.9312   -0.3273   -0.0277 C   0  0  0  0  0  0  0  0  0  0  0  0
   -2.4885   -0.5107   -1.2026 O   0  0  0  0  0  0  0  0  0  0  0  0
   -4.3427   -0.1023    0.2130 C   0  0  0  0  0  0  0  0  0  0  0  0
   -4.9537    0.1086    1.4233 C   0  0  0  0  0  0  0  0  0  0  0  0
   -6.3216    0.2770    1.1732 C   0  0  0  0  0  0  0  0  0  0  0  0
   -6.4428    0.1534   -0.1988 C   0  0  0  0  0  0  0  0  0  0  0  0
   -5.2579   -0.0674   -0.7115 O   0  0  0  0  0  0  0  0  0  0  0  0
    0.5286    0.9470    0.4948 S   0  0  0  0  0  0  0  0  0  0  0  0
    7.2090   -0.6753    0.8310 H   0  0  0  0  0  0  0  0  0  0  0  0
    6.6174   -1.3515   -0.7244 H   0  0  0  0  0  0  0  0  0  0  0  0
    7.7587    0.0356   -0.7244 H   0  0  0  0  0  0  0  0  0  0  0  0
    5.9154    1.2463    0.6350 H   0  0  0  0  0  0  0  0  0  0  0  0
    5.7049    1.0221   -1.1487 H   0  0  0  0  0  0  0  0  0  0  0  0
    1.7591   -3.2880    2.3522 H   0  0  0  0  0  0  0  0  0  0  0  0
    3.1994   -5.3125    2.1867 H   0  0  0  0  0  0  0  0  0  0  0  0
    4.6561   -5.6455    0.2049 H   0  0  0  0  0  0  0  0  0  0  0  0
    4.6600   -3.9485   -1.5996 H   0  0  0  0  0  0  0  0  0  0  0  0
    3.2204   -1.9387   -1.4226 H   0  0  0  0  0  0  0  0  0  0  0  0
   -2.2809   -0.2144    1.9720 H   0  0  0  0  0  0  0  0  0  0  0  0
   -4.4613    0.1397    2.4065 H   0  0  0  0  0  0  0  0  0  0  0  0
   -7.1210    0.4656    1.9049 H   0  0  0  0  0  0  0  0  0  0  0  0
   -7.3816    0.2282   -0.7671 H   0  0  0  0  0  0  0  0  0  0  0  0
  1  2  1  0
  2  3  1  0
  3  4  1  0
  4  5  2  0
  4  6  1  0
  6  7  2  0
  7  8  1  0
  8  9  2  0
  9 10  1  0
 10 11  2  0
 11 12  1  0
 12 13  2  0
  7 14  1  0
 14 15  2  0
 15 16  1  0
 16 17  1  0
 17 18  2  0
 17 19  1  0
 19 20  2  0
 20 21  1  0
 21 22  2  0
 22 23  1  0
 15 24  1  0
 24  6  1  0
 13  8  1  0
 23 19  1  0
  1 25  1  0
  1 26  1  0
  1 27  1  0
  2 28  1  0
  2 29  1  0
  9 30  1  0
 10 31  1  0
 11 32  1  0
 12 33  1  0
 13 34  1  0
 16 35  1  0
 20 36  1  0
 21 37  1  0
 22 38  1  0
M  END
>  <Original_Name>  (57) 
CHEMBL1222145

>  <ROSHAMBO_ComboTanimoto>  (57) 
0.844

>  <ROSHAMBO_ShapeTanimoto>  (57) 
0.571

>  <ROSHAMBO_ColorTanimoto>  (57) 
0.273

>  <ROSHAMBO_FitTverskyCombo>  (57) 
1.237

>  <ROSHAMBO_FitTversky>  (57) 
0.76

>  <ROSHAMBO_FitColorTversky>  (57) 
0.477

>  <ROSHAMBO_RefTverskyCombo>  (57) 
1.086

>  <ROSHAMBO_RefTversky>  (57) 
0.696

>  <ROSHAMBO_RefColorTversky>  (57) 
0.39

>  <ROSHAMBO_Overlap>  (57) 
852.238

$$$$
CHEMBL17859_0_31
     RDKit          3D

 32 34  0  0  0  0  0  0  0  0999 V2000
    4.3747    1.7562    0.2429 N   0  0  0  0  0  0  0  0  0  0  0  0
    3.5253    0.6258    0.2086 C   0  0  0  0  0  0  0  0  0  0  0  0
    2.1749    0.7870    0.4196 C   0  0  0  0  0  0  0  0  0  0  0  0
    1.4404    1.8655    0.6687 N   0  0  0  0  0  0  0  0  0  0  0  0
    0.1537    1.5085    0.8005 C   0  0  0  0  0  0  0  0  0  0  0  0
    0.0803    0.1823    0.6309 N   0  0  0  0  0  0  0  0  0  0  0  0
   -1.1287   -0.5804    0.6968 C   0  0  0  0  0  0  0  0  0  0  0  0
   -2.4910    0.5035    0.1065 S   0  0  0  0  0  0  0  0  0  0  0  0
   -3.2679   -0.6651   -1.0789 C   0  0  0  0  0  0  0  0  0  0  0  0
   -4.7627   -0.6893   -0.8437 C   0  0  0  0  0  0  0  0  0  0  0  0
   -5.2676    0.6036   -1.0417 O   0  0  0  0  0  0  0  0  0  0  0  0
   -2.6633   -1.9702   -0.5787 C   0  0  0  0  0  0  0  0  0  0  0  0
   -3.2932   -2.2854    0.6140 O   0  0  0  0  0  0  0  0  0  0  0  0
   -1.1875   -1.6824   -0.3388 C   0  0  0  0  0  0  0  0  0  0  0  0
   -0.6408   -2.8167    0.2319 O   0  0  0  0  0  0  0  0  0  0  0  0
    1.3059   -0.2995    0.3939 C   0  0  0  0  0  0  0  0  0  0  0  0
    1.8369   -1.5122    0.1551 N   0  0  0  0  0  0  0  0  0  0  0  0
    3.1642   -1.6579   -0.0505 C   0  0  0  0  0  0  0  0  0  0  0  0
    3.8780   -3.2300   -0.3636 Cl  0  0  0  0  0  0  0  0  0  0  0  0
    4.0027   -0.6011   -0.0246 N   0  0  0  0  0  0  0  0  0  0  0  0
    5.3866    1.6449    0.0861 H   0  0  0  0  0  0  0  0  0  0  0  0
    3.9814    2.6906    0.4247 H   0  0  0  0  0  0  0  0  0  0  0  0
   -0.6890    2.1837    1.0101 H   0  0  0  0  0  0  0  0  0  0  0  0
   -1.1922   -0.9661    1.7250 H   0  0  0  0  0  0  0  0  0  0  0  0
   -3.1096   -0.4417   -2.1443 H   0  0  0  0  0  0  0  0  0  0  0  0
   -5.2379   -1.3851   -1.5508 H   0  0  0  0  0  0  0  0  0  0  0  0
   -4.9763   -1.0232    0.1825 H   0  0  0  0  0  0  0  0  0  0  0  0
   -5.4343    1.0307   -0.1643 H   0  0  0  0  0  0  0  0  0  0  0  0
   -2.7833   -2.8061   -1.2836 H   0  0  0  0  0  0  0  0  0  0  0  0
   -2.7245   -2.0008    1.3728 H   0  0  0  0  0  0  0  0  0  0  0  0
   -0.6607   -1.4054   -1.2639 H   0  0  0  0  0  0  0  0  0  0  0  0
   -0.6776   -2.7403    1.2183 H   0  0  0  0  0  0  0  0  0  0  0  0
  1  2  1  0
  2  3  2  0
  3  4  1  0
  4  5  2  0
  5  6  1  0
  6  7  1  0
  7  8  1  0
  8  9  1  0
  9 10  1  0
 10 11  1  0
  9 12  1  0
 12 13  1  0
 12 14  1  0
 14 15  1  0
  6 16  1  0
 16 17  2  0
 17 18  1  0
 18 19  1  0
 18 20  2  0
 20  2  1  0
 16  3  1  0
 14  7  1  0
  1 21  1  0
  1 22  1  0
  5 23  1  0
  7 24  1  0
  9 25  1  0
 10 26  1  0
 10 27  1  0
 11 28  1  0
 12 29  1  0
 13 30  1  0
 14 31  1  0
 15 32  1  0
M  END
>  <Original_Name>  (58) 
CHEMBL17859

>  <ROSHAMBO_ComboTanimoto>  (58) 
0.837

>  <ROSHAMBO_ShapeTanimoto>  (58) 
0.607

>  <ROSHAMBO_ColorTanimoto>  (58) 
0.23

>  <ROSHAMBO_FitTverskyCombo>  (58) 
1.238

>  <ROSHAMBO_FitTversky>  (58) 
0.862

>  <ROSHAMBO_FitColorTversky>  (58) 
0.376

>  <ROSHAMBO_RefTverskyCombo>  (58) 
1.045

>  <ROSHAMBO_RefTversky>  (58) 
0.673

>  <ROSHAMBO_RefColorTversky>  (58) 
0.372

>  <ROSHAMBO_Overlap>  (58) 
817.827

$$$$
CHEMBL166429_0_87
     RDKit          3D

 31 32  0  0  0  0  0  0  0  0999 V2000
   -2.6482   -1.3392    1.5111 S   0  0  0  0  0  0  0  0  0  0  0  0
   -2.3928   -1.4396   -0.0939 C   0  0  0  0  0  0  0  0  0  0  0  0
   -3.3170   -0.8691   -1.0869 C   0  0  0  0  0  0  0  0  0  0  0  0
   -4.4861   -0.2043   -0.4728 C   0  0  0  0  0  0  0  0  0  0  0  0
   -5.6215   -0.9491   -0.2286 C   0  0  0  0  0  0  0  0  0  0  0  0
   -6.7620   -0.3904    0.3477 C   0  0  0  0  0  0  0  0  0  0  0  0
   -6.7786    0.9463    0.6926 C   0  0  0  0  0  0  0  0  0  0  0  0
   -5.6445    1.6912    0.4489 C   0  0  0  0  0  0  0  0  0  0  0  0
   -4.5156    1.1275   -0.1242 C   0  0  0  0  0  0  0  0  0  0  0  0
   -1.2314   -2.1044   -0.5612 N   0  0  0  0  0  0  0  0  0  0  0  0
   -0.3435   -2.6499    0.3076 N   0  0  0  0  0  0  0  0  0  0  0  0
    0.7665   -2.2717    0.7558 C   0  0  0  0  0  0  0  0  0  0  0  0
    1.4991   -1.0549    0.4696 C   0  0  0  0  0  0  0  0  0  0  0  0
    2.7210   -0.8033    1.0622 C   0  0  0  0  0  0  0  0  0  0  0  0
    3.4377    0.3486    0.8052 C   0  0  0  0  0  0  0  0  0  0  0  0
    2.9009    1.2644   -0.0729 C   0  0  0  0  0  0  0  0  0  0  0  0
    1.7227    1.0259   -0.6467 N   0  0  0  0  0  0  0  0  0  0  0  0
    1.0175   -0.1147   -0.3896 C   0  0  0  0  0  0  0  0  0  0  0  0
   -2.7703   -0.1297   -1.6904 H   0  0  0  0  0  0  0  0  0  0  0  0
   -3.6955   -1.7004   -1.6998 H   0  0  0  0  0  0  0  0  0  0  0  0
   -5.6274   -2.0159   -0.4966 H   0  0  0  0  0  0  0  0  0  0  0  0
   -7.6492   -1.0153    0.5276 H   0  0  0  0  0  0  0  0  0  0  0  0
   -7.6696    1.4031    1.1480 H   0  0  0  0  0  0  0  0  0  0  0  0
   -5.6354    2.7583    0.7157 H   0  0  0  0  0  0  0  0  0  0  0  0
   -3.6293    1.7538   -0.3035 H   0  0  0  0  0  0  0  0  0  0  0  0
   -1.0591   -2.1743   -1.5743 H   0  0  0  0  0  0  0  0  0  0  0  0
    1.2503   -2.9599    1.4646 H   0  0  0  0  0  0  0  0  0  0  0  0
    3.1365   -1.5442    1.7612 H   0  0  0  0  0  0  0  0  0  0  0  0
    4.4094    0.5298    1.2878 H   0  0  0  0  0  0  0  0  0  0  0  0
    3.4453    2.1928   -0.3002 H   0  0  0  0  0  0  0  0  0  0  0  0
    0.0477   -0.2762   -0.8829 H   0  0  0  0  0  0  0  0  0  0  0  0
  1  2  2  0
  2  3  1  0
  3  4  1  0
  4  5  2  0
  5  6  1  0
  6  7  2  0
  7  8  1  0
  8  9  2  0
  2 10  1  0
 10 11  1  0
 11 12  2  3
 12 13  1  0
 13 14  2  0
 14 15  1  0
 15 16  2  0
 16 17  1  0
 17 18  2  0
  9  4  1  0
 18 13  1  0
  3 19  1  0
  3 20  1  0
  5 21  1  0
  6 22  1  0
  7 23  1  0
  8 24  1  0
  9 25  1  0
 10 26  1  0
 12 27  1  0
 14 28  1  0
 15 29  1  0
 16 30  1  0
 18 31  1  0
M  END
>  <Original_Name>  (59) 
CHEMBL166429

>  <ROSHAMBO_ComboTanimoto>  (59) 
0.837

>  <ROSHAMBO_ShapeTanimoto>  (59) 
0.56

>  <ROSHAMBO_ColorTanimoto>  (59) 
0.277

>  <ROSHAMBO_FitTverskyCombo>  (59) 
1.518

>  <ROSHAMBO_FitTversky>  (59) 
0.879

>  <ROSHAMBO_FitColorTversky>  (59) 
0.64

>  <ROSHAMBO_RefTverskyCombo>  (59) 
0.935

>  <ROSHAMBO_RefTversky>  (59) 
0.607

>  <ROSHAMBO_RefColorTversky>  (59) 
0.328

>  <ROSHAMBO_Overlap>  (59) 
734.537

$$$$
CHEMBL398272_1_1
     RDKit          3D

 47 50  0  0  0  0  0  0  0  0999 V2000
   -7.3505    1.2383   -0.2175 C   0  0  0  0  0  0  0  0  0  0  0  0
   -6.3020    1.8115   -1.0020 N   0  0  0  0  0  0  0  0  0  0  0  0
   -5.6727    2.9670   -0.3973 C   0  0  0  0  0  0  0  0  0  0  0  0
   -5.0156    2.4621    0.8455 C   0  0  0  0  0  0  0  0  0  0  0  0
   -3.9489    1.5194    0.6124 N   0  0  0  0  0  0  0  0  0  0  0  0
   -2.6610    2.1919    0.6193 C   0  0  0  0  0  0  0  0  0  0  0  0
   -1.5818    1.2162    0.4697 C   0  0  0  0  0  0  0  0  0  0  0  0
   -1.7976   -0.0115    0.3711 O   0  0  0  0  0  0  0  0  0  0  0  0
   -0.2214    1.6540    0.4311 N   0  0  0  0  0  0  0  0  0  0  0  0
    0.7828    0.6659    0.2862 C   0  0  0  0  0  0  0  0  0  0  0  0
    2.1005    1.0593    0.2242 C   0  0  0  0  0  0  0  0  0  0  0  0
    3.1007    0.1437    0.0875 C   0  0  0  0  0  0  0  0  0  0  0  0
    4.4473    0.5936    0.0286 C   0  0  0  0  0  0  0  0  0  0  0  0
    5.0270    1.8376    0.0925 N   0  0  0  0  0  0  0  0  0  0  0  0
    6.2373    2.0519    0.0247 C   0  0  0  0  0  0  0  0  0  0  0  0
    7.1901    0.9769   -0.1336 C   0  0  0  0  0  0  0  0  0  0  0  0
    5.9255   -0.3883   -0.1590 S   0  0  0  0  0  0  0  0  0  0  0  0
    2.7678   -1.1644    0.0140 N   0  0  0  0  0  0  0  0  0  0  0  0
    1.4911   -1.5642    0.0728 C   0  0  0  0  0  0  0  0  0  0  0  0
    1.1597   -3.0040   -0.0056 C   0  0  0  0  0  0  0  0  0  0  0  0
    1.0161   -3.8769    1.0508 C   0  0  0  0  0  0  0  0  0  0  0  0
    0.7092   -5.1033    0.5232 C   0  0  0  0  0  0  0  0  0  0  0  0
    0.6731   -4.9488   -0.8400 C   0  0  0  0  0  0  0  0  0  0  0  0
    0.9446   -3.6982   -1.0963 O   0  0  0  0  0  0  0  0  0  0  0  0
    0.5199   -0.6445    0.2076 N   0  0  0  0  0  0  0  0  0  0  0  0
   -4.1174    0.7108   -0.5483 C   0  0  0  0  0  0  0  0  0  0  0  0
   -5.3013    0.8911   -1.3932 C   0  0  0  0  0  0  0  0  0  0  0  0
   -7.1200    1.3643    0.8507 H   0  0  0  0  0  0  0  0  0  0  0  0
   -8.3000    1.7428   -0.4498 H   0  0  0  0  0  0  0  0  0  0  0  0
   -7.4382    0.1667   -0.4498 H   0  0  0  0  0  0  0  0  0  0  0  0
   -4.9247    3.3977   -1.0792 H   0  0  0  0  0  0  0  0  0  0  0  0
   -6.4028    3.7600   -0.1782 H   0  0  0  0  0  0  0  0  0  0  0  0
   -4.6014    3.3232    1.3903 H   0  0  0  0  0  0  0  0  0  0  0  0
   -5.7894    1.9272    1.4158 H   0  0  0  0  0  0  0  0  0  0  0  0
   -2.6209    2.9089   -0.2139 H   0  0  0  0  0  0  0  0  0  0  0  0
   -2.5371    2.7209    1.5757 H   0  0  0  0  0  0  0  0  0  0  0  0
    0.0199    2.6526    0.5061 H   0  0  0  0  0  0  0  0  0  0  0  0
    2.3499    2.1289    0.2860 H   0  0  0  0  0  0  0  0  0  0  0  0
    6.6027    3.0877    0.0861 H   0  0  0  0  0  0  0  0  0  0  0  0
    8.2873    0.9684   -0.2122 H   0  0  0  0  0  0  0  0  0  0  0  0
    1.1272   -3.6344    2.1180 H   0  0  0  0  0  0  0  0  0  0  0  0
    0.5269   -6.0321    1.0837 H   0  0  0  0  0  0  0  0  0  0  0  0
    0.4556   -5.7335   -1.5795 H   0  0  0  0  0  0  0  0  0  0  0  0
   -3.2395    0.8841   -1.1880 H   0  0  0  0  0  0  0  0  0  0  0  0
   -4.2471   -0.3017   -0.1384 H   0  0  0  0  0  0  0  0  0  0  0  0
   -4.9425    1.2098   -2.3830 H   0  0  0  0  0  0  0  0  0  0  0  0
   -5.8096   -0.0828   -1.3374 H   0  0  0  0  0  0  0  0  0  0  0  0
  1  2  1  0
  2  3  1  0
  3  4  1  0
  4  5  1  0
  5  6  1  0
  6  7  1  0
  7  8  2  0
  7  9  1  0
  9 10  1  0
 10 11  2  0
 11 12  1  0
 12 13  1  0
 13 14  2  0
 14 15  1  0
 15 16  2  0
 16 17  1  0
 12 18  2  0
 18 19  1  0
 19 20  1  0
 20 21  2  0
 21 22  1  0
 22 23  2  0
 23 24  1  0
 19 25  2  0
  5 26  1  0
 26 27  1  0
 27  2  1  0
 25 10  1  0
 17 13  1  0
 24 20  1  0
  1 28  1  0
  1 29  1  0
  1 30  1  0
  3 31  1  0
  3 32  1  0
  4 33  1  0
  4 34  1  0
  6 35  1  0
  6 36  1  0
  9 37  1  0
 11 38  1  0
 15 39  1  0
 16 40  1  0
 21 41  1  0
 22 42  1  0
 23 43  1  0
 26 44  1  0
 26 45  1  0
 27 46  1  0
 27 47  1  0
M  END
>  <Original_Name>  (60) 
CHEMBL398272

>  <ROSHAMBO_ComboTanimoto>  (60) 
0.837

>  <ROSHAMBO_ShapeTanimoto>  (60) 
0.532

>  <ROSHAMBO_ColorTanimoto>  (60) 
0.305

>  <ROSHAMBO_FitTverskyCombo>  (60) 
1.188

>  <ROSHAMBO_FitTversky>  (60) 
0.683

>  <ROSHAMBO_FitColorTversky>  (60) 
0.505

>  <ROSHAMBO_RefTverskyCombo>  (60) 
1.142

>  <ROSHAMBO_RefTversky>  (60) 
0.707

>  <ROSHAMBO_RefColorTversky>  (60) 
0.435

>  <ROSHAMBO_Overlap>  (60) 
871.129

$$$$
CHEMBL95101_0_54
     RDKit          3D

 42 45  0  0  0  0  0  0  0  0999 V2000
   -0.6037   -2.9976   -0.1466 C   0  0  0  0  0  0  0  0  0  0  0  0
   -0.0563   -1.6191   -0.1702 C   0  0  0  0  0  0  0  0  0  0  0  0
   -0.7272   -0.4185   -0.2837 C   0  0  0  0  0  0  0  0  0  0  0  0
   -2.1946   -0.2668   -0.4101 C   0  0  0  0  0  0  0  0  0  0  0  0
    0.1781    0.5746   -0.2593 N   0  0  0  0  0  0  0  0  0  0  0  0
   -0.0720    1.9699   -0.3484 C   0  0  0  0  0  0  0  0  0  0  0  0
   -0.0737    2.6928    0.8145 C   0  0  0  0  0  0  0  0  0  0  0  0
   -0.3099    4.0421    0.7819 C   0  0  0  0  0  0  0  0  0  0  0  0
   -0.5482    4.6943   -0.4067 C   0  0  0  0  0  0  0  0  0  0  0  0
   -0.5490    3.9721   -1.5907 C   0  0  0  0  0  0  0  0  0  0  0  0
   -0.3100    2.6284   -1.5235 C   0  0  0  0  0  0  0  0  0  0  0  0
    1.4085    0.0568   -0.1341 C   0  0  0  0  0  0  0  0  0  0  0  0
    2.6592    0.6022   -0.0596 N   0  0  0  0  0  0  0  0  0  0  0  0
    3.7711   -0.1394    0.0671 C   0  0  0  0  0  0  0  0  0  0  0  0
    5.1053    0.4858    0.1444 C   0  0  0  0  0  0  0  0  0  0  0  0
    5.2582    1.8552    0.0893 C   0  0  0  0  0  0  0  0  0  0  0  0
    6.5268    2.3810    0.1661 C   0  0  0  0  0  0  0  0  0  0  0  0
    7.6577    1.6022    0.2962 C   0  0  0  0  0  0  0  0  0  0  0  0
    7.4895    0.2140    0.3510 C   0  0  0  0  0  0  0  0  0  0  0  0
    6.2148   -0.3128    0.2737 C   0  0  0  0  0  0  0  0  0  0  0  0
    3.6190   -1.4719    0.1204 N   0  0  0  0  0  0  0  0  0  0  0  0
    2.4283   -2.0675    0.0533 C   0  0  0  0  0  0  0  0  0  0  0  0
    2.2452   -3.4748    0.1079 N   0  0  0  0  0  0  0  0  0  0  0  0
    1.2643   -1.3085   -0.0784 C   0  0  0  0  0  0  0  0  0  0  0  0
   -0.7329   -3.3230    0.8962 H   0  0  0  0  0  0  0  0  0  0  0  0
   -1.5768   -3.0146   -0.6592 H   0  0  0  0  0  0  0  0  0  0  0  0
    0.0927   -3.6775   -0.6592 H   0  0  0  0  0  0  0  0  0  0  0  0
   -2.6461   -0.2201    0.5919 H   0  0  0  0  0  0  0  0  0  0  0  0
   -2.4216    0.6596   -0.9581 H   0  0  0  0  0  0  0  0  0  0  0  0
   -2.6064   -1.1271   -0.9581 H   0  0  0  0  0  0  0  0  0  0  0  0
    0.1146    2.1904    1.7748 H   0  0  0  0  0  0  0  0  0  0  0  0
   -0.3091    4.6139    1.7216 H   0  0  0  0  0  0  0  0  0  0  0  0
   -0.7364    5.7781   -0.4173 H   0  0  0  0  0  0  0  0  0  0  0  0
   -0.7363    4.4664   -2.5553 H   0  0  0  0  0  0  0  0  0  0  0  0
   -0.3090    2.0490   -2.4585 H   0  0  0  0  0  0  0  0  0  0  0  0
    4.3832    2.5137   -0.0141 H   0  0  0  0  0  0  0  0  0  0  0  0
    6.6450    3.4738    0.1218 H   0  0  0  0  0  0  0  0  0  0  0  0
    8.6577    2.0567    0.3548 H   0  0  0  0  0  0  0  0  0  0  0  0
    8.3610   -0.4491    0.4543 H   0  0  0  0  0  0  0  0  0  0  0  0
    6.0848   -1.4043    0.3170 H   0  0  0  0  0  0  0  0  0  0  0  0
    1.2972   -3.8735    0.0507 H   0  0  0  0  0  0  0  0  0  0  0  0
    3.0605   -4.0969    0.2046 H   0  0  0  0  0  0  0  0  0  0  0  0
  1  2  1  0
  2  3  2  0
  3  4  1  0
  3  5  1  0
  5  6  1  0
  6  7  2  0
  7  8  1  0
  8  9  2  0
  9 10  1  0
 10 11  2  0
  5 12  1  0
 12 13  2  0
 13 14  1  0
 14 15  1  0
 15 16  2  0
 16 17  1  0
 17 18  2  0
 18 19  1  0
 19 20  2  0
 14 21  2  0
 21 22  1  0
 22 23  1  0
 22 24  2  0
 24  2  1  0
 11  6  1  0
 24 12  1  0
 20 15  1  0
  1 25  1  0
  1 26  1  0
  1 27  1  0
  4 28  1  0
  4 29  1  0
  4 30  1  0
  7 31  1  0
  8 32  1  0
  9 33  1  0
 10 34  1  0
 11 35  1  0
 16 36  1  0
 17 37  1  0
 18 38  1  0
 19 39  1  0
 20 40  1  0
 23 41  1  0
 23 42  1  0
M  END
>  <Original_Name>  (61) 
CHEMBL95101

>  <ROSHAMBO_ComboTanimoto>  (61) 
0.837

>  <ROSHAMBO_ShapeTanimoto>  (61) 
0.505

>  <ROSHAMBO_ColorTanimoto>  (61) 
0.332

>  <ROSHAMBO_FitTverskyCombo>  (61) 
1.237

>  <ROSHAMBO_FitTversky>  (61) 
0.687

>  <ROSHAMBO_FitColorTversky>  (61) 
0.55

>  <ROSHAMBO_RefTverskyCombo>  (61) 
1.111

>  <ROSHAMBO_RefTversky>  (61) 
0.656

>  <ROSHAMBO_RefColorTversky>  (61) 
0.455

>  <ROSHAMBO_Overlap>  (61) 
805.547

$$$$
CHEMBL122806_0_17
     RDKit          3D

 37 39  0  0  0  0  0  0  0  0999 V2000
    3.9958   -3.4531   -0.3180 N   0  0  0  0  0  0  0  0  0  0  0  0
    2.9478   -2.7700   -0.3034 C   0  0  0  0  0  0  0  0  0  0  0  0
    1.6807   -1.9702   -0.2779 C   0  0  0  0  0  0  0  0  0  0  0  0
    1.8103   -0.7414    0.1393 C   0  0  0  0  0  0  0  0  0  0  0  0
    3.1292   -0.1336    0.3316 C   0  0  0  0  0  0  0  0  0  0  0  0
    4.0016   -0.6795    1.2422 C   0  0  0  0  0  0  0  0  0  0  0  0
    5.3044   -0.4204    1.3549 C   0  0  0  0  0  0  0  0  0  0  0  0
    5.9224    0.5616    0.4369 C   0  0  0  0  0  0  0  0  0  0  0  0
    5.0467    1.1015   -0.4420 C   0  0  0  0  0  0  0  0  0  0  0  0
    5.5478    2.0392   -1.3926 O   0  0  0  0  0  0  0  0  0  0  0  0
    3.6645    0.8288   -0.5614 C   0  0  0  0  0  0  0  0  0  0  0  0
    0.5807    0.0505    0.4332 C   0  0  0  0  0  0  0  0  0  0  0  0
    0.8514    1.4347    0.7039 C   0  0  0  0  0  0  0  0  0  0  0  0
    1.0725    2.6821    0.9442 N   0  0  0  0  0  0  0  0  0  0  0  0
   -0.5013   -0.7142    0.1837 C   0  0  0  0  0  0  0  0  0  0  0  0
   -2.0605    0.3072    0.4638 S   0  0  0  0  0  0  0  0  0  0  0  0
   -3.4597   -0.7622    0.2412 C   0  0  0  0  0  0  0  0  0  0  0  0
   -4.7382   -0.0747    0.0246 C   0  0  0  0  0  0  0  0  0  0  0  0
   -5.6992    0.1480    0.8652 N   0  0  0  0  0  0  0  0  0  0  0  0
   -6.7462    0.7757    0.2213 C   0  0  0  0  0  0  0  0  0  0  0  0
   -6.3406    0.9028   -1.0908 C   0  0  0  0  0  0  0  0  0  0  0  0
   -5.1377    0.4003   -1.2015 N   0  0  0  0  0  0  0  0  0  0  0  0
   -0.6016   -1.9318   -0.2378 N   0  0  0  0  0  0  0  0  0  0  0  0
    0.5288   -2.6203   -0.4934 C   0  0  0  0  0  0  0  0  0  0  0  0
    0.6044   -3.9020   -1.1273 N   0  0  0  0  0  0  0  0  0  0  0  0
    3.5809   -1.4064    1.9525 H   0  0  0  0  0  0  0  0  0  0  0  0
    5.9107   -0.9289    2.1189 H   0  0  0  0  0  0  0  0  0  0  0  0
    6.9896    0.8268    0.4660 H   0  0  0  0  0  0  0  0  0  0  0  0
    4.9343    2.4533   -2.0501 H   0  0  0  0  0  0  0  0  0  0  0  0
    3.0370    1.3369   -1.3084 H   0  0  0  0  0  0  0  0  0  0  0  0
   -3.2644   -1.4022   -0.6319 H   0  0  0  0  0  0  0  0  0  0  0  0
   -3.5687   -1.3249    1.1800 H   0  0  0  0  0  0  0  0  0  0  0  0
   -7.6997    1.1041    0.6604 H   0  0  0  0  0  0  0  0  0  0  0  0
   -6.9285    1.3506   -1.9056 H   0  0  0  0  0  0  0  0  0  0  0  0
   -4.5806    0.3661   -2.0671 H   0  0  0  0  0  0  0  0  0  0  0  0
    1.5202   -4.3484   -1.2788 H   0  0  0  0  0  0  0  0  0  0  0  0
   -0.2570   -4.3776   -1.4318 H   0  0  0  0  0  0  0  0  0  0  0  0
  1  2  3  0
  2  3  1  0
  3  4  2  0
  4  5  1  0
  5  6  2  0
  6  7  1  0
  7  8  2  0
  8  9  1  0
  9 10  1  0
  9 11  2  0
  4 12  1  0
 12 13  1  0
 13 14  3  0
 12 15  2  0
 15 16  1  0
 16 17  1  0
 17 18  1  0
 18 19  2  0
 19 20  1  0
 20 21  2  0
 21 22  1  0
 15 23  1  0
 23 24  2  0
 24 25  1  0
 24  3  1  0
 11  5  1  0
 22 18  1  0
  6 26  1  0
  7 27  1  0
  8 28  1  0
 10 29  1  0
 11 30  1  0
 17 31  1  0
 17 32  1  0
 20 33  1  0
 21 34  1  0
 22 35  1  0
 25 36  1  0
 25 37  1  0
M  END
>  <Original_Name>  (62) 
CHEMBL122806

>  <ROSHAMBO_ComboTanimoto>  (62) 
0.832

>  <ROSHAMBO_ShapeTanimoto>  (62) 
0.664

>  <ROSHAMBO_ColorTanimoto>  (62) 
0.168

>  <ROSHAMBO_FitTverskyCombo>  (62) 
1.115

>  <ROSHAMBO_FitTversky>  (62) 
0.821

>  <ROSHAMBO_FitColorTversky>  (62) 
0.295

>  <ROSHAMBO_RefTverskyCombo>  (62) 
1.057

>  <ROSHAMBO_RefTversky>  (62) 
0.777

>  <ROSHAMBO_RefColorTversky>  (62) 
0.281

>  <ROSHAMBO_Overlap>  (62) 
953.189

$$$$
CHEMBL267200_0_20
     RDKit          3D

 35 38  0  0  0  0  0  0  0  0999 V2000
    0.9361   -4.0833   -0.4673 N   0  0  0  0  0  0  0  0  0  0  0  0
    1.0238   -2.7004   -0.1837 C   0  0  0  0  0  0  0  0  0  0  0  0
    2.2066   -2.0364   -0.1681 N   0  0  0  0  0  0  0  0  0  0  0  0
    2.3136   -0.7251    0.0982 C   0  0  0  0  0  0  0  0  0  0  0  0
    3.5940   -0.0264    0.1109 C   0  0  0  0  0  0  0  0  0  0  0  0
    3.8147    1.2745    0.3630 N   0  0  0  0  0  0  0  0  0  0  0  0
    5.1280    1.5448    0.2814 N   0  0  0  0  0  0  0  0  0  0  0  0
    5.8068    0.4295   -0.0266 C   0  0  0  0  0  0  0  0  0  0  0  0
    4.8497   -0.5572   -0.1343 C   0  0  0  0  0  0  0  0  0  0  0  0
    1.1557   -0.0346    0.3668 C   0  0  0  0  0  0  0  0  0  0  0  0
    0.8747    1.2808    0.6751 C   0  0  0  0  0  0  0  0  0  0  0  0
   -0.4563    1.4261    0.8465 N   0  0  0  0  0  0  0  0  0  0  0  0
   -1.0282    0.2510    0.6581 N   0  0  0  0  0  0  0  0  0  0  0  0
   -2.4424    0.0060    0.7557 C   0  0  0  0  0  0  0  0  0  0  0  0
   -3.1385    0.1922   -0.5392 C   0  0  0  0  0  0  0  0  0  0  0  0
   -2.5033    0.5575   -1.7003 C   0  0  0  0  0  0  0  0  0  0  0  0
   -3.2423    0.7061   -2.8601 C   0  0  0  0  0  0  0  0  0  0  0  0
   -4.6100    0.4952   -2.8798 C   0  0  0  0  0  0  0  0  0  0  0  0
   -5.2470    0.1271   -1.7077 C   0  0  0  0  0  0  0  0  0  0  0  0
   -4.5063   -0.0204   -0.5512 C   0  0  0  0  0  0  0  0  0  0  0  0
   -5.1633   -0.3867    0.5992 F   0  0  0  0  0  0  0  0  0  0  0  0
   -0.0928   -0.6679    0.3647 C   0  0  0  0  0  0  0  0  0  0  0  0
   -0.0824   -1.9789    0.0860 N   0  0  0  0  0  0  0  0  0  0  0  0
    0.0186   -4.5514   -0.4694 H   0  0  0  0  0  0  0  0  0  0  0  0
    1.7897   -4.6222   -0.6716 H   0  0  0  0  0  0  0  0  0  0  0  0
    5.5513    2.4715    0.4329 H   0  0  0  0  0  0  0  0  0  0  0  0
    6.8931    0.3247   -0.1636 H   0  0  0  0  0  0  0  0  0  0  0  0
    5.0532   -1.6102   -0.3788 H   0  0  0  0  0  0  0  0  0  0  0  0
    1.6192    2.0853    0.7668 H   0  0  0  0  0  0  0  0  0  0  0  0
   -2.5991   -1.0283    1.0955 H   0  0  0  0  0  0  0  0  0  0  0  0
   -2.8602    0.7321    1.4686 H   0  0  0  0  0  0  0  0  0  0  0  0
   -1.4170    0.7303   -1.7081 H   0  0  0  0  0  0  0  0  0  0  0  0
   -2.7307    0.9988   -3.7888 H   0  0  0  0  0  0  0  0  0  0  0  0
   -5.1813    0.6181   -3.8118 H   0  0  0  0  0  0  0  0  0  0  0  0
   -6.3332   -0.0464   -1.6971 H   0  0  0  0  0  0  0  0  0  0  0  0
  1  2  1  0
  2  3  2  0
  3  4  1  0
  4  5  1  0
  5  6  2  0
  6  7  1  0
  7  8  1  0
  8  9  2  0
  4 10  2  0
 10 11  1  0
 11 12  2  0
 12 13  1  0
 13 14  1  0
 14 15  1  0
 15 16  2  0
 16 17  1  0
 17 18  2  0
 18 19  1  0
 19 20  2  0
 20 21  1  0
 13 22  1  0
 22 23  2  0
 23  2  1  0
  9  5  1  0
 22 10  1  0
 20 15  1  0
  1 24  1  0
  1 25  1  0
  7 26  1  0
  8 27  1  0
  9 28  1  0
 11 29  1  0
 14 30  1  0
 14 31  1  0
 16 32  1  0
 17 33  1  0
 18 34  1  0
 19 35  1  0
M  END
>  <Original_Name>  (63) 
CHEMBL267200

>  <ROSHAMBO_ComboTanimoto>  (63) 
0.831

>  <ROSHAMBO_ShapeTanimoto>  (63) 
0.588

>  <ROSHAMBO_ColorTanimoto>  (63) 
0.243

>  <ROSHAMBO_FitTverskyCombo>  (63) 
1.175

>  <ROSHAMBO_FitTversky>  (63) 
0.769

>  <ROSHAMBO_FitColorTversky>  (63) 
0.406

>  <ROSHAMBO_RefTverskyCombo>  (63) 
1.092

>  <ROSHAMBO_RefTversky>  (63) 
0.713

>  <ROSHAMBO_RefColorTversky>  (63) 
0.378

>  <ROSHAMBO_Overlap>  (63) 
874.387

$$$$
CHEMBL209366_0_64
     RDKit          3D

 49 52  0  0  0  0  0  0  0  0999 V2000
    7.6840   -1.7375    0.0365 C   0  0  0  0  0  0  0  0  0  0  0  0
    8.0944   -0.3060   -0.1730 C   0  0  0  0  0  0  0  0  0  0  0  0
    7.1733    0.4528   -1.0705 C   0  0  0  0  0  0  0  0  0  0  0  0
    5.8160    0.5211   -0.5878 N   0  0  0  0  0  0  0  0  0  0  0  0
    5.4587    1.5516    0.2137 C   0  0  0  0  0  0  0  0  0  0  0  0
    6.3302    2.4269    0.5163 O   0  0  0  0  0  0  0  0  0  0  0  0
    4.2407    1.7153    0.7146 N   0  0  0  0  0  0  0  0  0  0  0  0
    3.2787    0.7958    0.4117 C   0  0  0  0  0  0  0  0  0  0  0  0
    3.5668   -0.2870   -0.4024 C   0  0  0  0  0  0  0  0  0  0  0  0
    2.4419   -1.0137   -0.5245 N   0  0  0  0  0  0  0  0  0  0  0  0
    1.4540   -0.4379    0.1770 C   0  0  0  0  0  0  0  0  0  0  0  0
    1.9821    0.6617    0.7395 N   0  0  0  0  0  0  0  0  0  0  0  0
    0.0694   -0.8954    0.3178 C   0  0  0  0  0  0  0  0  0  0  0  0
   -0.8445   -0.1965    1.0775 C   0  0  0  0  0  0  0  0  0  0  0  0
   -2.1485   -0.6312    1.2075 C   0  0  0  0  0  0  0  0  0  0  0  0
   -2.6073   -1.7785    0.5907 C   0  0  0  0  0  0  0  0  0  0  0  0
   -1.6885   -2.4751   -0.1691 C   0  0  0  0  0  0  0  0  0  0  0  0
   -0.3844   -2.0418   -0.3000 C   0  0  0  0  0  0  0  0  0  0  0  0
   -4.2542   -2.3444    0.7437 S   0  0  0  0  0  6  0  0  0  0  0  0
   -4.8475   -2.0428    2.0886 O   0  0  0  0  0  0  0  0  0  0  0  0
   -4.3084   -3.8625    0.6145 O   0  0  0  0  0  0  0  0  0  0  0  0
   -5.2802   -1.7164   -0.4605 N   0  0  0  0  0  0  0  0  0  0  0  0
   -5.4739   -0.2958   -0.5383 C   0  0  0  0  0  0  0  0  0  0  0  0
   -5.4136    0.3302   -1.7887 C   0  0  0  0  0  0  0  0  0  0  0  0
   -5.5972    1.6910   -1.8682 C   0  0  0  0  0  0  0  0  0  0  0  0
   -5.8401    2.4816   -0.7727 C   0  0  0  0  0  0  0  0  0  0  0  0
   -5.9002    1.8707    0.4575 C   0  0  0  0  0  0  0  0  0  0  0  0
   -5.7174    0.4915    0.5654 C   0  0  0  0  0  0  0  0  0  0  0  0
    4.8637   -0.3804   -0.8819 C   0  0  0  0  0  0  0  0  0  0  0  0
    5.1543   -1.3539   -1.6240 O   0  0  0  0  0  0  0  0  0  0  0  0
    7.6237   -1.9476    1.1145 H   0  0  0  0  0  0  0  0  0  0  0  0
    6.7006   -1.9084   -0.4259 H   0  0  0  0  0  0  0  0  0  0  0  0
    8.4274   -2.4035   -0.4259 H   0  0  0  0  0  0  0  0  0  0  0  0
    8.1188    0.1959    0.8055 H   0  0  0  0  0  0  0  0  0  0  0  0
    9.0809   -0.3203   -0.6595 H   0  0  0  0  0  0  0  0  0  0  0  0
    7.5567    1.4786   -1.1738 H   0  0  0  0  0  0  0  0  0  0  0  0
    7.1455   -0.0849   -2.0297 H   0  0  0  0  0  0  0  0  0  0  0  0
    4.0257    2.5203    1.3201 H   0  0  0  0  0  0  0  0  0  0  0  0
    1.4623    1.3154    1.3423 H   0  0  0  0  0  0  0  0  0  0  0  0
   -0.5289    0.7245    1.5896 H   0  0  0  0  0  0  0  0  0  0  0  0
   -2.8456   -0.0439    1.8232 H   0  0  0  0  0  0  0  0  0  0  0  0
   -2.0028   -3.3962   -0.6816 H   0  0  0  0  0  0  0  0  0  0  0  0
    0.3136   -2.6283   -0.9154 H   0  0  0  0  0  0  0  0  0  0  0  0
   -5.7548   -2.3459   -1.1233 H   0  0  0  0  0  0  0  0  0  0  0  0
   -5.2216   -0.2593   -2.6973 H   0  0  0  0  0  0  0  0  0  0  0  0
   -5.5470    2.1690   -2.8577 H   0  0  0  0  0  0  0  0  0  0  0  0
   -5.9819    3.5675   -0.8756 H   0  0  0  0  0  0  0  0  0  0  0  0
   -6.0929    2.4707    1.3591 H   0  0  0  0  0  0  0  0  0  0  0  0
   -5.7690    0.0206    1.5581 H   0  0  0  0  0  0  0  0  0  0  0  0
  1  2  1  0
  2  3  1  0
  3  4  1  0
  4  5  1  0
  5  6  2  0
  5  7  1  0
  7  8  1  0
  8  9  2  0
  9 10  1  0
 10 11  2  0
 11 12  1  0
 11 13  1  0
 13 14  2  0
 14 15  1  0
 15 16  2  0
 16 17  1  0
 17 18  2  0
 16 19  1  0
 19 20  2  0
 19 21  2  0
 19 22  1  0
 22 23  1  0
 23 24  2  0
 24 25  1  0
 25 26  2  0
 26 27  1  0
 27 28  2  0
  9 29  1  0
 29 30  2  0
 29  4  1  0
 12  8  1  0
 18 13  1  0
 28 23  1  0
  1 31  1  0
  1 32  1  0
  1 33  1  0
  2 34  1  0
  2 35  1  0
  3 36  1  0
  3 37  1  0
  7 38  1  0
 12 39  1  0
 14 40  1  0
 15 41  1  0
 17 42  1  0
 18 43  1  0
 22 44  1  0
 24 45  1  0
 25 46  1  0
 26 47  1  0
 27 48  1  0
 28 49  1  0
M  END
>  <Original_Name>  (64) 
CHEMBL209366

>  <ROSHAMBO_ComboTanimoto>  (64) 
0.83

>  <ROSHAMBO_ShapeTanimoto>  (64) 
0.654

>  <ROSHAMBO_ColorTanimoto>  (64) 
0.176

>  <ROSHAMBO_FitTverskyCombo>  (64) 
1.015

>  <ROSHAMBO_FitTversky>  (64) 
0.743

>  <ROSHAMBO_FitColorTversky>  (64) 
0.272

>  <ROSHAMBO_RefTverskyCombo>  (64) 
1.178

>  <ROSHAMBO_RefTversky>  (64) 
0.846

>  <ROSHAMBO_RefColorTversky>  (64) 
0.333

>  <ROSHAMBO_Overlap>  (64) 
1048.656

$$$$
CHEMBL303198_0_11
     RDKit          3D

 31 34  0  0  0  0  0  0  0  0999 V2000
   -1.1065   -2.4677    0.7317 N   0  0  0  0  0  0  0  0  0  0  0  0
   -0.2836   -1.3222    0.4907 C   0  0  0  0  0  0  0  0  0  0  0  0
   -0.7817   -0.1017    0.4016 N   0  0  0  0  0  0  0  0  0  0  0  0
    0.0016    0.9439    0.1777 C   0  0  0  0  0  0  0  0  0  0  0  0
   -0.5009    2.2216    0.0821 C   0  0  0  0  0  0  0  0  0  0  0  0
    0.3108    3.2885   -0.1479 C   0  0  0  0  0  0  0  0  0  0  0  0
    1.6691    3.0968   -0.2899 C   0  0  0  0  0  0  0  0  0  0  0  0
    2.7140    4.4707   -0.5859 Cl  0  0  0  0  0  0  0  0  0  0  0  0
    2.2083    1.8110   -0.1977 C   0  0  0  0  0  0  0  0  0  0  0  0
    1.3711    0.7606    0.0333 C   0  0  0  0  0  0  0  0  0  0  0  0
    1.9166   -0.4943    0.1209 N   0  0  0  0  0  0  0  0  0  0  0  0
    3.1598   -0.9496    0.0253 C   0  0  0  0  0  0  0  0  0  0  0  0
    4.4239   -0.2742   -0.2117 C   0  0  0  0  0  0  0  0  0  0  0  0
    5.1889    0.1811    0.8578 C   0  0  0  0  0  0  0  0  0  0  0  0
    6.4079    0.7952    0.7371 C   0  0  0  0  0  0  0  0  0  0  0  0
    6.9010    0.9690   -0.5369 C   0  0  0  0  0  0  0  0  0  0  0  0
    6.1629    0.5270   -1.6152 C   0  0  0  0  0  0  0  0  0  0  0  0
    4.9515   -0.0815   -1.4644 C   0  0  0  0  0  0  0  0  0  0  0  0
    3.0711   -2.3095    0.2031 N   0  0  0  0  0  0  0  0  0  0  0  0
    1.8276   -2.6438    0.3957 N   0  0  0  0  0  0  0  0  0  0  0  0
    1.0672   -1.5367    0.3525 C   0  0  0  0  0  0  0  0  0  0  0  0
   -0.6808   -3.4035    0.7948 H   0  0  0  0  0  0  0  0  0  0  0  0
   -2.1245   -2.3564    0.8421 H   0  0  0  0  0  0  0  0  0  0  0  0
   -1.5832    2.3835    0.1941 H   0  0  0  0  0  0  0  0  0  0  0  0
   -0.1146    4.3004   -0.2203 H   0  0  0  0  0  0  0  0  0  0  0  0
    3.2906    1.6492   -0.3097 H   0  0  0  0  0  0  0  0  0  0  0  0
    4.7868    0.0378    1.8715 H   0  0  0  0  0  0  0  0  0  0  0  0
    6.9687    1.1350    1.6203 H   0  0  0  0  0  0  0  0  0  0  0  0
    7.8748    1.4560   -0.6934 H   0  0  0  0  0  0  0  0  0  0  0  0
    6.5642    0.6698   -2.6293 H   0  0  0  0  0  0  0  0  0  0  0  0
    4.3946   -0.4194   -2.3508 H   0  0  0  0  0  0  0  0  0  0  0  0
  1  2  1  0
  2  3  2  0
  3  4  1  0
  4  5  2  0
  5  6  1  0
  6  7  2  0
  7  8  1  0
  7  9  1  0
  9 10  2  0
 10 11  1  0
 11 12  1  0
 12 13  1  0
 13 14  2  0
 14 15  1  0
 15 16  2  0
 16 17  1  0
 17 18  2  0
 12 19  2  0
 19 20  1  0
 20 21  2  0
 21  2  1  0
 10  4  1  0
 21 11  1  0
 18 13  1  0
  1 22  1  0
  1 23  1  0
  5 24  1  0
  6 25  1  0
  9 26  1  0
 14 27  1  0
 15 28  1  0
 16 29  1  0
 17 30  1  0
 18 31  1  0
M  END
>  <Original_Name>  (65) 
CHEMBL303198

>  <ROSHAMBO_ComboTanimoto>  (65) 
0.83

>  <ROSHAMBO_ShapeTanimoto>  (65) 
0.512

>  <ROSHAMBO_ColorTanimoto>  (65) 
0.318

>  <ROSHAMBO_FitTverskyCombo>  (65) 
1.251

>  <ROSHAMBO_FitTversky>  (65) 
0.734

>  <ROSHAMBO_FitColorTversky>  (65) 
0.517

>  <ROSHAMBO_RefTverskyCombo>  (65) 
1.081

>  <ROSHAMBO_RefTversky>  (65) 
0.629

>  <ROSHAMBO_RefColorTversky>  (65) 
0.452

>  <ROSHAMBO_Overlap>  (65) 
768.149

$$$$
CHEMBL468506_0
     RDKit          3D

 47 50  0  0  0  0  0  0  0  0999 V2000
    5.7251   -1.5163   -1.4686 C   0  0  0  0  0  0  0  0  0  0  0  0
    5.2147   -0.4021   -0.6845 N   0  0  0  0  0  0  0  0  0  0  0  0
    3.9209   -0.4289   -0.3371 C   0  0  0  0  0  0  0  0  0  0  0  0
    3.4309    0.6242    0.4061 C   0  0  0  0  0  0  0  0  0  0  0  0
    2.1211    0.3768    0.6311 N   0  0  0  0  0  0  0  0  0  0  0  0
    1.7464   -0.7680    0.0776 C   0  0  0  0  0  0  0  0  0  0  0  0
    0.3972   -1.3653    0.1123 C   0  0  0  0  0  0  0  0  0  0  0  0
   -0.6463   -0.7580    0.7542 C   0  0  0  0  0  0  0  0  0  0  0  0
   -1.9109   -1.3360    0.7764 C   0  0  0  0  0  0  0  0  0  0  0  0
   -2.1679   -2.5381    0.1567 C   0  0  0  0  0  0  0  0  0  0  0  0
   -3.5208   -3.1339    0.1885 C   0  0  0  0  0  0  0  0  0  0  0  0
   -4.5044   -2.2553    0.6481 O   0  0  0  0  0  0  0  0  0  0  0  0
   -4.8509   -1.0625    0.0828 C   0  0  0  0  0  0  0  0  0  0  0  0
   -4.2262   -0.7052   -0.9662 O   0  0  0  0  0  0  0  0  0  0  0  0
   -5.8648   -0.1959    0.5926 N   0  0  0  0  0  0  0  0  0  0  0  0
   -6.1921    1.0340   -0.0266 C   0  0  0  0  0  0  0  0  0  0  0  0
   -7.1557    1.9116    0.4133 C   0  0  0  0  0  0  0  0  0  0  0  0
   -7.1813    3.0018   -0.4549 C   0  0  0  0  0  0  0  0  0  0  0  0
   -6.1976    2.7010   -1.3946 C   0  0  0  0  0  0  0  0  0  0  0  0
   -5.6568    1.5416   -1.0915 O   0  0  0  0  0  0  0  0  0  0  0  0
   -1.1114   -3.1419   -0.4868 C   0  0  0  0  0  0  0  0  0  0  0  0
    0.1555   -2.5702   -0.5131 C   0  0  0  0  0  0  0  0  0  0  0  0
    2.8542   -1.2994   -0.5387 C   0  0  0  0  0  0  0  0  0  0  0  0
    4.2964    1.6492    0.7530 C   0  0  0  0  0  0  0  0  0  0  0  0
    3.8811    2.6213    1.4287 O   0  0  0  0  0  0  0  0  0  0  0  0
    5.5981    1.6480    0.3873 N   0  0  0  0  0  0  0  0  0  0  0  0
    6.4808    2.7381    0.7669 C   0  0  0  0  0  0  0  0  0  0  0  0
    6.0396    0.6127   -0.3320 C   0  0  0  0  0  0  0  0  0  0  0  0
    7.2646    0.6092   -0.6775 O   0  0  0  0  0  0  0  0  0  0  0  0
    6.0865   -2.3052   -0.7926 H   0  0  0  0  0  0  0  0  0  0  0  0
    4.9208   -1.9171   -2.1030 H   0  0  0  0  0  0  0  0  0  0  0  0
    6.5539   -1.1690   -2.1030 H   0  0  0  0  0  0  0  0  0  0  0  0
    1.4951    0.9976    1.1637 H   0  0  0  0  0  0  0  0  0  0  0  0
   -0.4826    0.2040    1.2618 H   0  0  0  0  0  0  0  0  0  0  0  0
   -2.7270   -0.8192    1.3026 H   0  0  0  0  0  0  0  0  0  0  0  0
   -3.7858   -3.4512   -0.8309 H   0  0  0  0  0  0  0  0  0  0  0  0
   -3.4865   -3.9788    0.8920 H   0  0  0  0  0  0  0  0  0  0  0  0
   -6.3765   -0.4760    1.4415 H   0  0  0  0  0  0  0  0  0  0  0  0
   -7.7957    1.7764    1.2977 H   0  0  0  0  0  0  0  0  0  0  0  0
   -7.8268    3.8912   -0.4089 H   0  0  0  0  0  0  0  0  0  0  0  0
   -5.9186    3.3317   -2.2516 H   0  0  0  0  0  0  0  0  0  0  0  0
   -1.2742   -4.1040   -0.9946 H   0  0  0  0  0  0  0  0  0  0  0  0
    0.9738   -3.0845   -1.0383 H   0  0  0  0  0  0  0  0  0  0  0  0
    2.8910   -2.2478   -1.0947 H   0  0  0  0  0  0  0  0  0  0  0  0
    6.5330    2.8027    1.8638 H   0  0  0  0  0  0  0  0  0  0  0  0
    7.4868    2.5534    0.3622 H   0  0  0  0  0  0  0  0  0  0  0  0
    6.0907    3.6837    0.3622 H   0  0  0  0  0  0  0  0  0  0  0  0
  1  2  1  0
  2  3  1  0
  3  4  2  0
  4  5  1  0
  5  6  1  0
  6  7  1  0
  7  8  2  0
  8  9  1  0
  9 10  2  0
 10 11  1  0
 11 12  1  0
 12 13  1  0
 13 14  2  0
 13 15  1  0
 15 16  1  0
 16 17  2  0
 17 18  1  0
 18 19  2  0
 19 20  1  0
 10 21  1  0
 21 22  2  0
  6 23  2  0
  4 24  1  0
 24 25  2  0
 24 26  1  0
 26 27  1  0
 26 28  1  0
 28 29  2  0
 28  2  1  0
 23  3  1  0
 22  7  1  0
 20 16  1  0
  1 30  1  0
  1 31  1  0
  1 32  1  0
  5 33  1  0
  8 34  1  0
  9 35  1  0
 11 36  1  0
 11 37  1  0
 15 38  1  0
 17 39  1  0
 18 40  1  0
 19 41  1  0
 21 42  1  0
 22 43  1  0
 23 44  1  0
 27 45  1  0
 27 46  1  0
 27 47  1  0
M  END
>  <Original_Name>  (66) 
CHEMBL468506

>  <ROSHAMBO_ComboTanimoto>  (66) 
0.83

>  <ROSHAMBO_ShapeTanimoto>  (66) 
0.699

>  <ROSHAMBO_ColorTanimoto>  (66) 
0.13

>  <ROSHAMBO_FitTverskyCombo>  (66) 
1.013

>  <ROSHAMBO_FitTversky>  (66) 
0.773

>  <ROSHAMBO_FitColorTversky>  (66) 
0.24

>  <ROSHAMBO_RefTverskyCombo>  (66) 
1.102

>  <ROSHAMBO_RefTversky>  (66) 
0.88

>  <ROSHAMBO_RefColorTversky>  (66) 
0.222

>  <ROSHAMBO_Overlap>  (66) 
1091.185

$$$$
CHEMBL507754_0_67
     RDKit          3D

 51 53  0  0  0  0  0  0  0  0999 V2000
    1.7863   -5.5948   -1.2666 C   0  0  0  0  0  0  0  0  0  0  0  0
    2.0400   -4.0883   -1.2369 C   0  0  0  0  0  0  0  0  0  0  0  0
    1.9431   -3.6166    0.2116 C   0  0  0  0  0  0  0  0  0  0  0  0
    2.1843   -2.1990    0.2176 N   0  0  0  0  0  0  0  0  0  0  0  0
    1.1382   -1.3668    0.0790 C   0  0  0  0  0  0  0  0  0  0  0  0
    1.3371    0.0184    0.0804 C   0  0  0  0  0  0  0  0  0  0  0  0
    0.0833    0.6669   -0.0807 N   0  0  0  0  0  0  0  0  0  0  0  0
   -0.8094   -0.3055   -0.6774 C   0  0  0  0  0  0  0  0  0  0  0  0
   -2.2151   -0.0573   -0.3750 C   0  0  0  0  0  0  0  0  0  0  0  0
   -3.1393   -0.1480   -1.3919 C   0  0  0  0  0  0  0  0  0  0  0  0
   -4.4780    0.0645   -1.2188 C   0  0  0  0  0  0  0  0  0  0  0  0
   -4.9336    0.3900    0.0522 C   0  0  0  0  0  0  0  0  0  0  0  0
   -6.6455    0.6560    0.2460 S   0  0  0  0  0  6  0  0  0  0  0  0
   -7.5051   -0.8475    0.6544 C   0  0  0  0  0  0  0  0  0  0  0  0
   -7.2794    1.2136   -0.9967 O   0  0  0  0  0  0  0  0  0  0  0  0
   -6.8724    1.6774    1.3460 O   0  0  0  0  0  0  0  0  0  0  0  0
   -4.0350    0.4873    1.0846 C   0  0  0  0  0  0  0  0  0  0  0  0
   -2.6862    0.2694    0.8918 C   0  0  0  0  0  0  0  0  0  0  0  0
   -0.2959   -1.5699   -0.0889 C   0  0  0  0  0  0  0  0  0  0  0  0
   -0.8861   -2.6209    0.2244 O   0  0  0  0  0  0  0  0  0  0  0  0
    2.6415    0.4544    0.2296 C   0  0  0  0  0  0  0  0  0  0  0  0
    2.8639    1.6951    0.2362 O   0  0  0  0  0  0  0  0  0  0  0  0
    3.6834   -0.3842    0.3678 N   0  0  0  0  0  0  0  0  0  0  0  0
    5.0389    0.0516    0.5231 C   0  0  0  0  0  0  0  0  0  0  0  0
    5.6819    0.1805   -0.8488 C   0  0  0  0  0  0  0  0  0  0  0  0
    7.1181    0.6392   -0.7404 C   0  0  0  0  0  0  0  0  0  0  0  0
    3.4248   -1.7025    0.3581 C   0  0  0  0  0  0  0  0  0  0  0  0
    4.3730   -2.5295    0.4850 O   0  0  0  0  0  0  0  0  0  0  0  0
    1.7220   -5.9762   -0.2369 H   0  0  0  0  0  0  0  0  0  0  0  0
    0.8414   -5.7972   -1.7922 H   0  0  0  0  0  0  0  0  0  0  0  0
    2.6127   -6.0955   -1.7922 H   0  0  0  0  0  0  0  0  0  0  0  0
    3.0433   -3.8718   -1.6327 H   0  0  0  0  0  0  0  0  0  0  0  0
    1.2970   -3.5656   -1.8572 H   0  0  0  0  0  0  0  0  0  0  0  0
    0.9402   -3.8293    0.6103 H   0  0  0  0  0  0  0  0  0  0  0  0
    2.6786   -4.1391    0.8409 H   0  0  0  0  0  0  0  0  0  0  0  0
   -0.1459    1.6376    0.1764 H   0  0  0  0  0  0  0  0  0  0  0  0
   -0.8077   -0.2953   -1.7774 H   0  0  0  0  0  0  0  0  0  0  0  0
   -2.7800   -0.4057   -2.3991 H   0  0  0  0  0  0  0  0  0  0  0  0
   -5.1767   -0.0200   -2.0642 H   0  0  0  0  0  0  0  0  0  0  0  0
   -7.5641   -0.9506    1.7480 H   0  0  0  0  0  0  0  0  0  0  0  0
   -8.5210   -0.8148    0.2339 H   0  0  0  0  0  0  0  0  0  0  0  0
   -6.9616   -1.7064    0.2339 H   0  0  0  0  0  0  0  0  0  0  0  0
   -4.3987    0.7453    2.0901 H   0  0  0  0  0  0  0  0  0  0  0  0
   -1.9868    0.3537    1.7366 H   0  0  0  0  0  0  0  0  0  0  0  0
    5.0560    1.0273    1.0307 H   0  0  0  0  0  0  0  0  0  0  0  0
    5.5963   -0.6807    1.1256 H   0  0  0  0  0  0  0  0  0  0  0  0
    5.6550   -0.7980   -1.3506 H   0  0  0  0  0  0  0  0  0  0  0  0
    5.1205    0.9293   -1.4268 H   0  0  0  0  0  0  0  0  0  0  0  0
    7.3957    0.7278    0.3203 H   0  0  0  0  0  0  0  0  0  0  0  0
    7.7752   -0.0938   -1.2313 H   0  0  0  0  0  0  0  0  0  0  0  0
    7.2287    1.6174   -1.2313 H   0  0  0  0  0  0  0  0  0  0  0  0
  1  2  1  0
  2  3  1  0
  3  4  1  0
  4  5  1  0
  5  6  2  0
  6  7  1  0
  7  8  1  0
  8  9  1  0
  9 10  2  0
 10 11  1  0
 11 12  2  0
 12 13  1  0
 13 14  1  0
 13 15  2  0
 13 16  2  0
 12 17  1  0
 17 18  2  0
  8 19  1  0
 19 20  2  0
  6 21  1  0
 21 22  2  0
 21 23  1  0
 23 24  1  0
 24 25  1  0
 25 26  1  0
 23 27  1  0
 27 28  2  0
 27  4  1  0
 19  5  1  0
 18  9  1  0
  1 29  1  0
  1 30  1  0
  1 31  1  0
  2 32  1  0
  2 33  1  0
  3 34  1  0
  3 35  1  0
  7 36  1  0
  8 37  1  0
 10 38  1  0
 11 39  1  0
 14 40  1  0
 14 41  1  0
 14 42  1  0
 17 43  1  0
 18 44  1  0
 24 45  1  0
 24 46  1  0
 25 47  1  0
 25 48  1  0
 26 49  1  0
 26 50  1  0
 26 51  1  0
M  END
>  <Original_Name>  (67) 
CHEMBL507754

>  <ROSHAMBO_ComboTanimoto>  (67) 
0.827

>  <ROSHAMBO_ShapeTanimoto>  (67) 
0.628

>  <ROSHAMBO_ColorTanimoto>  (67) 
0.2

>  <ROSHAMBO_FitTverskyCombo>  (67) 
1.077

>  <ROSHAMBO_FitTversky>  (67) 
0.754

>  <ROSHAMBO_FitColorTversky>  (67) 
0.323

>  <ROSHAMBO_RefTverskyCombo>  (67) 
1.133

>  <ROSHAMBO_RefTversky>  (67) 
0.789

>  <ROSHAMBO_RefColorTversky>  (67) 
0.344

>  <ROSHAMBO_Overlap>  (67) 
973.715

$$$$
CHEMBL17859_0_77
     RDKit          3D

 32 34  0  0  0  0  0  0  0  0999 V2000
    4.3485    1.8493   -0.0473 N   0  0  0  0  0  0  0  0  0  0  0  0
    3.5363    0.6899    0.0241 C   0  0  0  0  0  0  0  0  0  0  0  0
    2.1867    0.8779    0.2878 C   0  0  0  0  0  0  0  0  0  0  0  0
    1.4349    1.9771    0.5030 N   0  0  0  0  0  0  0  0  0  0  0  0
    0.1661    1.5826    0.7117 C   0  0  0  0  0  0  0  0  0  0  0  0
    0.0689    0.2526    0.6385 N   0  0  0  0  0  0  0  0  0  0  0  0
   -1.0787   -0.5972    0.7934 C   0  0  0  0  0  0  0  0  0  0  0  0
   -2.5974    0.4447    0.7827 S   0  0  0  0  0  0  0  0  0  0  0  0
   -3.5862   -0.5886   -0.3724 C   0  0  0  0  0  0  0  0  0  0  0  0
   -4.9914   -0.7649    0.1377 C   0  0  0  0  0  0  0  0  0  0  0  0
   -5.5785    0.4917    0.2506 O   0  0  0  0  0  0  0  0  0  0  0  0
   -2.7899   -1.8870   -0.2592 C   0  0  0  0  0  0  0  0  0  0  0  0
   -3.1754   -2.8268   -1.1790 O   0  0  0  0  0  0  0  0  0  0  0  0
   -1.3535   -1.4215   -0.4718 C   0  0  0  0  0  0  0  0  0  0  0  0
   -0.4820   -2.4742   -0.6061 O   0  0  0  0  0  0  0  0  0  0  0  0
    1.3274   -0.1971    0.3738 C   0  0  0  0  0  0  0  0  0  0  0  0
    1.8476   -1.4253    0.1929 N   0  0  0  0  0  0  0  0  0  0  0  0
    3.1519   -1.6228   -0.0630 C   0  0  0  0  0  0  0  0  0  0  0  0
    3.8013   -3.2533   -0.2956 Cl  0  0  0  0  0  0  0  0  0  0  0  0
    3.9658   -0.5554   -0.1411 N   0  0  0  0  0  0  0  0  0  0  0  0
    5.3564    1.7610   -0.2406 H   0  0  0  0  0  0  0  0  0  0  0  0
    3.9309    2.7802    0.0942 H   0  0  0  0  0  0  0  0  0  0  0  0
   -0.6752    2.2616    0.9146 H   0  0  0  0  0  0  0  0  0  0  0  0
   -0.8818   -1.1942    1.6960 H   0  0  0  0  0  0  0  0  0  0  0  0
   -3.7091   -0.1922   -1.3912 H   0  0  0  0  0  0  0  0  0  0  0  0
   -5.5678   -1.3823   -0.5670 H   0  0  0  0  0  0  0  0  0  0  0  0
   -4.9779   -1.2652    1.1173 H   0  0  0  0  0  0  0  0  0  0  0  0
   -5.6857    0.7211    1.2077 H   0  0  0  0  0  0  0  0  0  0  0  0
   -2.9414   -2.3978    0.7032 H   0  0  0  0  0  0  0  0  0  0  0  0
   -3.5060   -3.6328   -0.7086 H   0  0  0  0  0  0  0  0  0  0  0  0
   -1.2160   -0.8481   -1.4004 H   0  0  0  0  0  0  0  0  0  0  0  0
   -0.2143   -2.7974    0.2905 H   0  0  0  0  0  0  0  0  0  0  0  0
  1  2  1  0
  2  3  2  0
  3  4  1  0
  4  5  2  0
  5  6  1  0
  6  7  1  0
  7  8  1  0
  8  9  1  0
  9 10  1  0
 10 11  1  0
  9 12  1  0
 12 13  1  0
 12 14  1  0
 14 15  1  0
  6 16  1  0
 16 17  2  0
 17 18  1  0
 18 19  1  0
 18 20  2  0
 20  2  1  0
 16  3  1  0
 14  7  1  0
  1 21  1  0
  1 22  1  0
  5 23  1  0
  7 24  1  0
  9 25  1  0
 10 26  1  0
 10 27  1  0
 11 28  1  0
 12 29  1  0
 13 30  1  0
 14 31  1  0
 15 32  1  0
M  END
>  <Original_Name>  (68) 
CHEMBL17859

>  <ROSHAMBO_ComboTanimoto>  (68) 
0.824

>  <ROSHAMBO_ShapeTanimoto>  (68) 
0.601

>  <ROSHAMBO_ColorTanimoto>  (68) 
0.223

>  <ROSHAMBO_FitTverskyCombo>  (68) 
1.226

>  <ROSHAMBO_FitTversky>  (68) 
0.86

>  <ROSHAMBO_FitColorTversky>  (68) 
0.366

>  <ROSHAMBO_RefTverskyCombo>  (68) 
1.029

>  <ROSHAMBO_RefTversky>  (68) 
0.666

>  <ROSHAMBO_RefColorTversky>  (68) 
0.363

>  <ROSHAMBO_Overlap>  (68) 
809.649

$$$$
CHEMBL178435_0_33
     RDKit          3D

 37 40  0  0  0  0  0  0  0  0999 V2000
    6.9552    1.1569    0.2978 C   0  0  0  0  0  0  0  0  0  0  0  0
    5.7512    0.3237    0.1025 C   0  0  0  0  0  0  0  0  0  0  0  0
    5.7986   -0.9795   -0.3307 C   0  0  0  0  0  0  0  0  0  0  0  0
    4.6361   -1.7044   -0.4930 C   0  0  0  0  0  0  0  0  0  0  0  0
    3.3809   -1.1635   -0.2315 C   0  0  0  0  0  0  0  0  0  0  0  0
    2.0210   -1.7159   -0.3238 C   0  0  0  0  0  0  0  0  0  0  0  0
    1.1488   -0.5918    0.1048 C   0  0  0  0  0  0  0  0  0  0  0  0
   -0.2210   -0.4815    0.2317 C   0  0  0  0  0  0  0  0  0  0  0  0
   -1.1152   -1.6308   -0.0883 C   0  0  0  0  0  0  0  0  0  0  0  0
   -1.5035   -1.5725   -1.5494 C   0  0  0  0  0  0  0  0  0  0  0  0
   -2.9771   -1.3091   -1.4756 C   0  0  0  0  0  0  0  0  0  0  0  0
   -3.1682   -0.8391   -0.0382 C   0  0  0  0  0  0  0  0  0  0  0  0
   -5.0021   -1.2954    0.4513 Br  0  0  0  0  0  0  0  0  0  0  0  0
   -2.2624   -1.6130    0.6637 O   0  0  0  0  0  0  0  0  0  0  0  0
   -0.7266    0.6882    0.6511 N   0  0  0  0  0  0  0  0  0  0  0  0
    0.0104    1.7699    0.9593 C   0  0  0  0  0  0  0  0  0  0  0  0
   -0.5731    2.9784    1.3967 N   0  0  0  0  0  0  0  0  0  0  0  0
    1.3555    1.6335    0.8254 N   0  0  0  0  0  0  0  0  0  0  0  0
    1.9431    0.4981    0.4119 C   0  0  0  0  0  0  0  0  0  0  0  0
    3.3634    0.1433    0.2009 C   0  0  0  0  0  0  0  0  0  0  0  0
    4.5239    0.8692    0.3637 C   0  0  0  0  0  0  0  0  0  0  0  0
    7.1414    1.2857    1.3742 H   0  0  0  0  0  0  0  0  0  0  0  0
    7.8216    0.6642   -0.1678 H   0  0  0  0  0  0  0  0  0  0  0  0
    6.7994    2.1413   -0.1678 H   0  0  0  0  0  0  0  0  0  0  0  0
    6.7697   -1.4478   -0.5495 H   0  0  0  0  0  0  0  0  0  0  0  0
    4.7037   -2.7456   -0.8411 H   0  0  0  0  0  0  0  0  0  0  0  0
    1.7907   -2.0184   -1.3560 H   0  0  0  0  0  0  0  0  0  0  0  0
    1.8861   -2.6165    0.2931 H   0  0  0  0  0  0  0  0  0  0  0  0
   -0.5618   -2.5537    0.1395 H   0  0  0  0  0  0  0  0  0  0  0  0
   -0.9783   -0.7578   -2.0693 H   0  0  0  0  0  0  0  0  0  0  0  0
   -1.2454   -2.4822   -2.1113 H   0  0  0  0  0  0  0  0  0  0  0  0
   -3.2756   -0.5279   -2.1902 H   0  0  0  0  0  0  0  0  0  0  0  0
   -3.5884   -2.1875   -1.7299 H   0  0  0  0  0  0  0  0  0  0  0  0
   -3.0132    0.2350    0.1417 H   0  0  0  0  0  0  0  0  0  0  0  0
    0.0242    3.7862    1.6238 H   0  0  0  0  0  0  0  0  0  0  0  0
   -1.5963    3.0526    1.4888 H   0  0  0  0  0  0  0  0  0  0  0  0
    4.4619    1.9109    0.7116 H   0  0  0  0  0  0  0  0  0  0  0  0
  1  2  1  0
  2  3  2  0
  3  4  1  0
  4  5  2  0
  5  6  1  0
  6  7  1  0
  7  8  2  0
  8  9  1  0
  9 10  1  0
 10 11  1  0
 11 12  1  0
 12 13  1  0
 12 14  1  0
  8 15  1  0
 15 16  2  0
 16 17  1  0
 16 18  1  0
 18 19  2  0
 19 20  1  0
 20 21  2  0
 21  2  1  0
 20  5  1  0
 19  7  1  0
 14  9  1  0
  1 22  1  0
  1 23  1  0
  1 24  1  0
  3 25  1  0
  4 26  1  0
  6 27  1  0
  6 28  1  0
  9 29  1  0
 10 30  1  0
 10 31  1  0
 11 32  1  0
 11 33  1  0
 12 34  1  0
 17 35  1  0
 17 36  1  0
 21 37  1  0
M  END
>  <Original_Name>  (69) 
CHEMBL178435

>  <ROSHAMBO_ComboTanimoto>  (69) 
0.821

>  <ROSHAMBO_ShapeTanimoto>  (69) 
0.659

>  <ROSHAMBO_ColorTanimoto>  (69) 
0.163

>  <ROSHAMBO_FitTverskyCombo>  (69) 
1.235

>  <ROSHAMBO_FitTversky>  (69) 
0.875

>  <ROSHAMBO_FitColorTversky>  (69) 
0.36

>  <ROSHAMBO_RefTverskyCombo>  (69) 
0.956

>  <ROSHAMBO_RefTversky>  (69) 
0.727

>  <ROSHAMBO_RefColorTversky>  (69) 
0.229

>  <ROSHAMBO_Overlap>  (69) 
886.295

$$$$
CHEMBL1221457_0_8
     RDKit          3D

 37 40  0  0  0  0  0  0  0  0999 V2000
    6.0444    1.2288   -0.0152 C   0  0  0  0  0  0  0  0  0  0  0  0
    4.7526    0.5038    0.0290 C   0  0  0  0  0  0  0  0  0  0  0  0
    4.6279   -0.8341    0.1155 N   0  0  0  0  0  0  0  0  0  0  0  0
    3.3594   -1.1489    0.1333 O   0  0  0  0  0  0  0  0  0  0  0  0
    2.6271   -0.0686    0.0619 C   0  0  0  0  0  0  0  0  0  0  0  0
    1.1916   -0.0905    0.0605 C   0  0  0  0  0  0  0  0  0  0  0  0
    0.2257   -1.0182    0.1184 C   0  0  0  0  0  0  0  0  0  0  0  0
    0.5666   -2.4699    0.2118 C   0  0  0  0  0  0  0  0  0  0  0  0
    1.2550   -2.9502    1.3048 C   0  0  0  0  0  0  0  0  0  0  0  0
    1.5717   -4.3085    1.3856 C   0  0  0  0  0  0  0  0  0  0  0  0
    1.2060   -5.1788    0.3876 C   0  0  0  0  0  0  0  0  0  0  0  0
    0.5179   -4.7012   -0.7056 C   0  0  0  0  0  0  0  0  0  0  0  0
    0.2149   -3.3640   -0.7690 C   0  0  0  0  0  0  0  0  0  0  0  0
   -1.0239   -0.6283    0.0914 N   0  0  0  0  0  0  0  0  0  0  0  0
   -1.3960    0.5395    0.0159 C   0  0  0  0  0  0  0  0  0  0  0  0
   -2.6193    1.2804   -0.0333 N   0  0  0  0  0  0  0  0  0  0  0  0
   -3.8290    0.5631    0.0110 C   0  0  0  0  0  0  0  0  0  0  0  0
   -3.8425   -0.6976    0.0916 O   0  0  0  0  0  0  0  0  0  0  0  0
   -5.1673    1.2471   -0.0345 C   0  0  0  0  0  0  0  0  0  0  0  0
   -6.3013    0.5417    0.6215 C   0  0  0  0  0  0  0  0  0  0  0  0
   -6.1962    0.5262   -0.8541 C   0  0  0  0  0  0  0  0  0  0  0  0
    0.1560    1.4280   -0.0386 S   0  0  0  0  0  0  0  0  0  0  0  0
    3.4891    0.9553   -0.0028 N   0  0  0  0  0  0  0  0  0  0  0  0
    6.3910    1.4233    1.0105 H   0  0  0  0  0  0  0  0  0  0  0  0
    6.7901    0.6174   -0.5444 H   0  0  0  0  0  0  0  0  0  0  0  0
    5.9110    2.1838   -0.5444 H   0  0  0  0  0  0  0  0  0  0  0  0
    1.5546   -2.2654    2.1119 H   0  0  0  0  0  0  0  0  0  0  0  0
    2.1214   -4.6863    2.2603 H   0  0  0  0  0  0  0  0  0  0  0  0
    1.4602   -6.2465    0.4610 H   0  0  0  0  0  0  0  0  0  0  0  0
    0.2157   -5.3811   -1.5158 H   0  0  0  0  0  0  0  0  0  0  0  0
   -0.3349   -2.9916   -1.6459 H   0  0  0  0  0  0  0  0  0  0  0  0
   -2.6144    2.3082   -0.0992 H   0  0  0  0  0  0  0  0  0  0  0  0
   -4.7630    2.2686    0.0201 H   0  0  0  0  0  0  0  0  0  0  0  0
   -6.1163   -0.3794    1.1938 H   0  0  0  0  0  0  0  0  0  0  0  0
   -7.0830    0.8334    1.3383 H   0  0  0  0  0  0  0  0  0  0  0  0
   -5.9299   -0.4043   -1.3770 H   0  0  0  0  0  0  0  0  0  0  0  0
   -6.8624    0.8019   -1.6848 H   0  0  0  0  0  0  0  0  0  0  0  0
  1  2  1  0
  2  3  2  0
  3  4  1  0
  4  5  1  0
  5  6  1  0
  6  7  2  0
  7  8  1  0
  8  9  2  0
  9 10  1  0
 10 11  2  0
 11 12  1  0
 12 13  2  0
  7 14  1  0
 14 15  2  0
 15 16  1  0
 16 17  1  0
 17 18  2  0
 17 19  1  0
 19 20  1  0
 20 21  1  0
 15 22  1  0
  5 23  2  0
 23  2  1  0
 22  6  1  0
 13  8  1  0
 21 19  1  0
  1 24  1  0
  1 25  1  0
  1 26  1  0
  9 27  1  0
 10 28  1  0
 11 29  1  0
 12 30  1  0
 13 31  1  0
 16 32  1  0
 19 33  1  0
 20 34  1  0
 20 35  1  0
 21 36  1  0
 21 37  1  0
M  END
>  <Original_Name>  (70) 
CHEMBL1221457

>  <ROSHAMBO_ComboTanimoto>  (70) 
0.82

>  <ROSHAMBO_ShapeTanimoto>  (70) 
0.561

>  <ROSHAMBO_ColorTanimoto>  (70) 
0.259

>  <ROSHAMBO_FitTverskyCombo>  (70) 
1.225

>  <ROSHAMBO_FitTversky>  (70) 
0.763

>  <ROSHAMBO_FitColorTversky>  (70) 
0.461

>  <ROSHAMBO_RefTverskyCombo>  (70) 
1.051

>  <ROSHAMBO_RefTversky>  (70) 
0.679

>  <ROSHAMBO_RefColorTversky>  (70) 
0.372

>  <ROSHAMBO_Overlap>  (70) 
830.913

$$$$
CHEMBL220445_0_53
     RDKit          3D

 28 29  0  0  0  0  0  0  0  0999 V2000
   -5.9032    0.4783   -0.5688 C   0  0  0  0  0  0  0  0  0  0  0  0
   -4.7019   -0.3949   -0.3981 C   0  0  0  0  0  0  0  0  0  0  0  0
   -3.1607    0.5584   -0.3488 S   0  0  0  0  0  0  0  0  0  0  0  0
   -1.7555   -0.5217   -0.1443 C   0  0  0  0  0  0  0  0  0  0  0  0
   -1.9818   -1.8486   -0.0544 N   0  0  0  0  0  0  0  0  0  0  0  0
   -0.9635   -2.6933    0.0989 C   0  0  0  0  0  0  0  0  0  0  0  0
   -1.1770   -4.1018    0.1965 N   0  0  0  0  0  0  0  0  0  0  0  0
    0.2811   -2.1983    0.1612 N   0  0  0  0  0  0  0  0  0  0  0  0
    0.5583   -0.8876    0.0768 C   0  0  0  0  0  0  0  0  0  0  0  0
    1.9254   -0.3881    0.1489 C   0  0  0  0  0  0  0  0  0  0  0  0
    2.9730   -1.2685    0.3076 C   0  0  0  0  0  0  0  0  0  0  0  0
    4.2782   -0.8244    0.3791 C   0  0  0  0  0  0  0  0  0  0  0  0
    4.5744    0.5157    0.2939 C   0  0  0  0  0  0  0  0  0  0  0  0
    3.5316    1.4145    0.1341 C   0  0  0  0  0  0  0  0  0  0  0  0
    2.2113    0.9570    0.0625 C   0  0  0  0  0  0  0  0  0  0  0  0
   -0.4977   -0.0624   -0.0780 N   0  0  0  0  0  0  0  0  0  0  0  0
   -6.2937    0.7622    0.4196 H   0  0  0  0  0  0  0  0  0  0  0  0
   -5.6219    1.3842   -1.1258 H   0  0  0  0  0  0  0  0  0  0  0  0
   -6.6781   -0.0688   -1.1258 H   0  0  0  0  0  0  0  0  0  0  0  0
   -4.8021   -0.9544    0.5437 H   0  0  0  0  0  0  0  0  0  0  0  0
   -4.6517   -1.0717   -1.2637 H   0  0  0  0  0  0  0  0  0  0  0  0
   -0.3751   -4.7373    0.3148 H   0  0  0  0  0  0  0  0  0  0  0  0
   -2.1330   -4.4822    0.1487 H   0  0  0  0  0  0  0  0  0  0  0  0
    2.7655   -2.3464    0.3786 H   0  0  0  0  0  0  0  0  0  0  0  0
    5.0927   -1.5527    0.5060 H   0  0  0  0  0  0  0  0  0  0  0  0
    5.6155    0.8664    0.3512 H   0  0  0  0  0  0  0  0  0  0  0  0
    3.7428    2.4918    0.0634 H   0  0  0  0  0  0  0  0  0  0  0  0
    1.3919    1.6798   -0.0644 H   0  0  0  0  0  0  0  0  0  0  0  0
  1  2  1  0
  2  3  1  0
  3  4  1  0
  4  5  2  0
  5  6  1  0
  6  7  1  0
  6  8  2  0
  8  9  1  0
  9 10  1  0
 10 11  2  0
 11 12  1  0
 12 13  2  0
 13 14  1  0
 14 15  2  0
  9 16  2  0
 16  4  1  0
 15 10  1  0
  1 17  1  0
  1 18  1  0
  1 19  1  0
  2 20  1  0
  2 21  1  0
  7 22  1  0
  7 23  1  0
 11 24  1  0
 12 25  1  0
 13 26  1  0
 14 27  1  0
 15 28  1  0
M  END
>  <Original_Name>  (71) 
CHEMBL220445

>  <ROSHAMBO_ComboTanimoto>  (71) 
0.82

>  <ROSHAMBO_ShapeTanimoto>  (71) 
0.568

>  <ROSHAMBO_ColorTanimoto>  (71) 
0.252

>  <ROSHAMBO_FitTverskyCombo>  (71) 
1.401

>  <ROSHAMBO_FitTversky>  (71) 
0.948

>  <ROSHAMBO_FitColorTversky>  (71) 
0.453

>  <ROSHAMBO_RefTverskyCombo>  (71) 
0.948

>  <ROSHAMBO_RefTversky>  (71) 
0.586

>  <ROSHAMBO_RefColorTversky>  (71) 
0.362

>  <ROSHAMBO_Overlap>  (71) 
705.956

$$$$
CHEMBL461650_0_89
     RDKit          3D

 31 34  0  0  0  0  0  0  0  0999 V2000
    1.7243   -4.0732    0.1653 N   0  0  0  0  0  0  0  0  0  0  0  0
    1.7151   -2.6526    0.2277 C   0  0  0  0  0  0  0  0  0  0  0  0
    2.8370   -1.9217    0.0208 N   0  0  0  0  0  0  0  0  0  0  0  0
    2.8337   -0.5804    0.0786 C   0  0  0  0  0  0  0  0  0  0  0  0
    4.0675    0.1978   -0.1500 C   0  0  0  0  0  0  0  0  0  0  0  0
    5.2934   -0.3670   -0.4343 C   0  0  0  0  0  0  0  0  0  0  0  0
    6.2076    0.6710   -0.5840 C   0  0  0  0  0  0  0  0  0  0  0  0
    5.4683    1.8170   -0.3783 C   0  0  0  0  0  0  0  0  0  0  0  0
    4.2242    1.4832   -0.1285 O   0  0  0  0  0  0  0  0  0  0  0  0
    1.6486    0.0539    0.3571 C   0  0  0  0  0  0  0  0  0  0  0  0
    1.2919    1.3381    0.4875 N   0  0  0  0  0  0  0  0  0  0  0  0
    0.0002    1.3917    0.7639 N   0  0  0  0  0  0  0  0  0  0  0  0
   -0.5243    0.1802    0.8236 N   0  0  0  0  0  0  0  0  0  0  0  0
   -1.8599   -0.2572    1.0885 C   0  0  0  0  0  0  0  0  0  0  0  0
   -2.6944   -0.3811   -0.1346 C   0  0  0  0  0  0  0  0  0  0  0  0
   -3.4730    0.6543   -0.6629 C   0  0  0  0  0  0  0  0  0  0  0  0
   -4.0886    0.1379   -1.7915 C   0  0  0  0  0  0  0  0  0  0  0  0
   -3.6715   -1.1540   -1.9011 C   0  0  0  0  0  0  0  0  0  0  0  0
   -2.8529   -1.4098   -0.9023 O   0  0  0  0  0  0  0  0  0  0  0  0
    0.5053   -0.6768    0.5686 C   0  0  0  0  0  0  0  0  0  0  0  0
    0.5711   -2.0194    0.4975 N   0  0  0  0  0  0  0  0  0  0  0  0
    0.8551   -4.6015    0.3272 H   0  0  0  0  0  0  0  0  0  0  0  0
    2.6002   -4.5739   -0.0420 H   0  0  0  0  0  0  0  0  0  0  0  0
    5.5088   -1.4418   -0.5258 H   0  0  0  0  0  0  0  0  0  0  0  0
    7.2804    0.5947   -0.8150 H   0  0  0  0  0  0  0  0  0  0  0  0
    5.8586    2.8447   -0.4173 H   0  0  0  0  0  0  0  0  0  0  0  0
   -1.8138   -1.2402    1.5800 H   0  0  0  0  0  0  0  0  0  0  0  0
   -2.3306    0.5053    1.7264 H   0  0  0  0  0  0  0  0  0  0  0  0
   -3.5758    1.6737   -0.2626 H   0  0  0  0  0  0  0  0  0  0  0  0
   -4.7781    0.6668   -2.4659 H   0  0  0  0  0  0  0  0  0  0  0  0
   -3.9677   -1.8622   -2.6890 H   0  0  0  0  0  0  0  0  0  0  0  0
  1  2  1  0
  2  3  2  0
  3  4  1  0
  4  5  1  0
  5  6  2  0
  6  7  1  0
  7  8  2  0
  8  9  1  0
  4 10  2  0
 10 11  1  0
 11 12  2  0
 12 13  1  0
 13 14  1  0
 14 15  1  0
 15 16  2  0
 16 17  1  0
 17 18  2  0
 18 19  1  0
 13 20  1  0
 20 21  2  0
 21  2  1  0
  9  5  1  0
 20 10  1  0
 19 15  1  0
  1 22  1  0
  1 23  1  0
  6 24  1  0
  7 25  1  0
  8 26  1  0
 14 27  1  0
 14 28  1  0
 16 29  1  0
 17 30  1  0
 18 31  1  0
M  END
>  <Original_Name>  (72) 
CHEMBL461650

>  <ROSHAMBO_ComboTanimoto>  (72) 
0.82

>  <ROSHAMBO_ShapeTanimoto>  (72) 
0.581

>  <ROSHAMBO_ColorTanimoto>  (72) 
0.239

>  <ROSHAMBO_FitTverskyCombo>  (72) 
1.206

>  <ROSHAMBO_FitTversky>  (72) 
0.791

>  <ROSHAMBO_FitColorTversky>  (72) 
0.415

>  <ROSHAMBO_RefTverskyCombo>  (72) 
1.046

>  <ROSHAMBO_RefTversky>  (72) 
0.686

>  <ROSHAMBO_RefColorTversky>  (72) 
0.36

>  <ROSHAMBO_Overlap>  (72) 
838.261

$$$$
CHEMBL17859_0_80
     RDKit          3D

 32 34  0  0  0  0  0  0  0  0999 V2000
    5.2844    0.7230   -0.1810 N   0  0  0  0  0  0  0  0  0  0  0  0
    4.0799   -0.0173   -0.0872 C   0  0  0  0  0  0  0  0  0  0  0  0
    2.8571    0.5868    0.1056 C   0  0  0  0  0  0  0  0  0  0  0  0
    2.4963    1.8852    0.2432 N   0  0  0  0  0  0  0  0  0  0  0  0
    1.1524    1.9323    0.4107 C   0  0  0  0  0  0  0  0  0  0  0  0
    0.6390    0.7029    0.3848 N   0  0  0  0  0  0  0  0  0  0  0  0
   -0.7353    0.3803    0.5293 C   0  0  0  0  0  0  0  0  0  0  0  0
   -1.7279    0.9029   -0.9283 S   0  0  0  0  0  0  0  0  0  0  0  0
   -2.9367   -0.4861   -0.8661 C   0  0  0  0  0  0  0  0  0  0  0  0
   -4.3449    0.0588   -0.8199 C   0  0  0  0  0  0  0  0  0  0  0  0
   -5.2071   -1.0319   -0.7744 O   0  0  0  0  0  0  0  0  0  0  0  0
   -2.5548   -1.0891    0.4853 C   0  0  0  0  0  0  0  0  0  0  0  0
   -3.0142   -2.3890    0.6164 O   0  0  0  0  0  0  0  0  0  0  0  0
   -1.0249   -1.1042    0.4418 C   0  0  0  0  0  0  0  0  0  0  0  0
   -0.7212   -1.5949   -0.8479 O   0  0  0  0  0  0  0  0  0  0  0  0
    1.6704   -0.1346    0.1985 C   0  0  0  0  0  0  0  0  0  0  0  0
    1.7836   -1.4727    0.0883 N   0  0  0  0  0  0  0  0  0  0  0  0
    2.9622   -2.0924   -0.1003 C   0  0  0  0  0  0  0  0  0  0  0  0
    3.1204   -3.8282   -0.2447 Cl  0  0  0  0  0  0  0  0  0  0  0  0
    4.0988   -1.3567   -0.1861 N   0  0  0  0  0  0  0  0  0  0  0  0
    6.1794    0.2342   -0.3255 H   0  0  0  0  0  0  0  0  0  0  0  0
    5.2650    1.7500   -0.1047 H   0  0  0  0  0  0  0  0  0  0  0  0
    0.5684    2.8542    0.5484 H   0  0  0  0  0  0  0  0  0  0  0  0
   -0.9758    0.8541    1.4925 H   0  0  0  0  0  0  0  0  0  0  0  0
   -2.9113   -1.1819   -1.7177 H   0  0  0  0  0  0  0  0  0  0  0  0
   -4.4785    0.6823    0.0763 H   0  0  0  0  0  0  0  0  0  0  0  0
   -4.5511    0.6827   -1.7021 H   0  0  0  0  0  0  0  0  0  0  0  0
   -5.3927   -1.2666    0.1693 H   0  0  0  0  0  0  0  0  0  0  0  0
   -2.9835   -0.5212    1.3241 H   0  0  0  0  0  0  0  0  0  0  0  0
   -3.0943   -2.6154    1.5768 H   0  0  0  0  0  0  0  0  0  0  0  0
   -0.4824   -1.6914    1.1973 H   0  0  0  0  0  0  0  0  0  0  0  0
   -0.2019   -2.4339   -0.7679 H   0  0  0  0  0  0  0  0  0  0  0  0
  1  2  1  0
  2  3  2  0
  3  4  1  0
  4  5  2  0
  5  6  1  0
  6  7  1  0
  7  8  1  0
  8  9  1  0
  9 10  1  0
 10 11  1  0
  9 12  1  0
 12 13  1  0
 12 14  1  0
 14 15  1  0
  6 16  1  0
 16 17  2  0
 17 18  1  0
 18 19  1  0
 18 20  2  0
 20  2  1  0
 16  3  1  0
 14  7  1  0
  1 21  1  0
  1 22  1  0
  5 23  1  0
  7 24  1  0
  9 25  1  0
 10 26  1  0
 10 27  1  0
 11 28  1  0
 12 29  1  0
 13 30  1  0
 14 31  1  0
 15 32  1  0
M  END
>  <Original_Name>  (73) 
CHEMBL17859

>  <ROSHAMBO_ComboTanimoto>  (73) 
0.816

>  <ROSHAMBO_ShapeTanimoto>  (73) 
0.593

>  <ROSHAMBO_ColorTanimoto>  (73) 
0.224

>  <ROSHAMBO_FitTverskyCombo>  (73) 
1.216

>  <ROSHAMBO_FitTversky>  (73) 
0.849

>  <ROSHAMBO_FitColorTversky>  (73) 
0.367

>  <ROSHAMBO_RefTverskyCombo>  (73) 
1.027

>  <ROSHAMBO_RefTversky>  (73) 
0.663

>  <ROSHAMBO_RefColorTversky>  (73) 
0.364

>  <ROSHAMBO_Overlap>  (73) 
805.513

$$$$
CHEMBL312449_0_40
     RDKit          3D

 27 29  0  0  0  0  0  0  0  0999 V2000
    3.0730   -3.6067   -2.2152 C   0  0  0  0  0  0  0  0  0  0  0  0
    2.8211   -3.3468   -0.7474 C   0  0  0  0  0  0  0  0  0  0  0  0
    2.0199   -2.1595   -0.4580 C   0  0  0  0  0  0  0  0  0  0  0  0
    0.6388   -2.1922   -0.3357 N   0  0  0  0  0  0  0  0  0  0  0  0
    0.1729   -1.0167   -0.0731 N   0  0  0  0  0  0  0  0  0  0  0  0
    1.2203   -0.1593   -0.0110 C   0  0  0  0  0  0  0  0  0  0  0  0
    2.3343   -0.8779   -0.2498 N   0  0  0  0  0  0  0  0  0  0  0  0
    3.5458   -0.2445   -0.2464 C   0  0  0  0  0  0  0  0  0  0  0  0
    4.6989   -0.9347   -0.4962 C   0  0  0  0  0  0  0  0  0  0  0  0
    5.9246   -0.2484   -0.4916 C   0  0  0  0  0  0  0  0  0  0  0  0
    7.3708   -1.1451   -0.8096 Cl  0  0  0  0  0  0  0  0  0  0  0  0
    5.9403    1.1012   -0.2374 C   0  0  0  0  0  0  0  0  0  0  0  0
    7.4563    1.9712   -0.2269 Cl  0  0  0  0  0  0  0  0  0  0  0  0
    4.7846    1.7941    0.0120 C   0  0  0  0  0  0  0  0  0  0  0  0
    3.5545    1.1332    0.0130 C   0  0  0  0  0  0  0  0  0  0  0  0
    2.4303    1.8306    0.2504 N   0  0  0  0  0  0  0  0  0  0  0  0
    1.2621    1.1869    0.2385 C   0  0  0  0  0  0  0  0  0  0  0  0
    0.0405    1.9198    0.4908 N   0  0  0  0  0  0  0  0  0  0  0  0
    3.8349   -4.3928   -2.3229 H   0  0  0  0  0  0  0  0  0  0  0  0
    2.1388   -3.9333   -2.6954 H   0  0  0  0  0  0  0  0  0  0  0  0
    3.4287   -2.6832   -2.6954 H   0  0  0  0  0  0  0  0  0  0  0  0
    2.2986   -4.2206   -0.3311 H   0  0  0  0  0  0  0  0  0  0  0  0
    3.8073   -3.1696   -0.2934 H   0  0  0  0  0  0  0  0  0  0  0  0
    4.6674   -2.0155   -0.6985 H   0  0  0  0  0  0  0  0  0  0  0  0
    4.8261    2.8750    0.2123 H   0  0  0  0  0  0  0  0  0  0  0  0
   -0.8652    1.4294    0.4832 H   0  0  0  0  0  0  0  0  0  0  0  0
    0.0766    2.9320    0.6780 H   0  0  0  0  0  0  0  0  0  0  0  0
  1  2  1  0
  2  3  1  0
  3  4  2  0
  4  5  1  0
  5  6  2  0
  6  7  1  0
  7  8  1  0
  8  9  2  0
  9 10  1  0
 10 11  1  0
 10 12  2  0
 12 13  1  0
 12 14  1  0
 14 15  2  0
 15 16  1  0
 16 17  2  0
 17 18  1  0
  7  3  1  0
 15  8  1  0
 17  6  1  0
  1 19  1  0
  1 20  1  0
  1 21  1  0
  2 22  1  0
  2 23  1  0
  9 24  1  0
 14 25  1  0
 18 26  1  0
 18 27  1  0
M  END
>  <Original_Name>  (74) 
CHEMBL312449

>  <ROSHAMBO_ComboTanimoto>  (74) 
0.81

>  <ROSHAMBO_ShapeTanimoto>  (74) 
0.516

>  <ROSHAMBO_ColorTanimoto>  (74) 
0.293

>  <ROSHAMBO_FitTverskyCombo>  (74) 
1.262

>  <ROSHAMBO_FitTversky>  (74) 
0.811

>  <ROSHAMBO_FitColorTversky>  (74) 
0.451

>  <ROSHAMBO_RefTverskyCombo>  (74) 
1.043

>  <ROSHAMBO_RefTversky>  (74) 
0.587

>  <ROSHAMBO_RefColorTversky>  (74) 
0.456

>  <ROSHAMBO_Overlap>  (74) 
711.279

$$$$
CHEMBL507754_0_47
     RDKit          3D

 51 53  0  0  0  0  0  0  0  0999 V2000
    1.5804   -3.6099    2.3055 C   0  0  0  0  0  0  0  0  0  0  0  0
    2.5672   -4.0076    1.2646 C   0  0  0  0  0  0  0  0  0  0  0  0
    2.3888   -3.3322   -0.0584 C   0  0  0  0  0  0  0  0  0  0  0  0
    2.4877   -1.9122   -0.0277 N   0  0  0  0  0  0  0  0  0  0  0  0
    1.3972   -1.1634    0.1702 C   0  0  0  0  0  0  0  0  0  0  0  0
    1.5087    0.2149    0.2002 C   0  0  0  0  0  0  0  0  0  0  0  0
    0.2109    0.8057    0.4257 N   0  0  0  0  0  0  0  0  0  0  0  0
   -0.5995   -0.2386    1.0297 C   0  0  0  0  0  0  0  0  0  0  0  0
   -2.0423   -0.0673    0.7380 C   0  0  0  0  0  0  0  0  0  0  0  0
   -2.5314    0.2346   -0.4960 C   0  0  0  0  0  0  0  0  0  0  0  0
   -3.9070    0.3785   -0.6841 C   0  0  0  0  0  0  0  0  0  0  0  0
   -4.8065    0.2240    0.3504 C   0  0  0  0  0  0  0  0  0  0  0  0
   -6.5319    0.3999    0.1357 S   0  0  0  0  0  6  0  0  0  0  0  0
   -7.1935   -1.1936   -0.2853 C   0  0  0  0  0  0  0  0  0  0  0  0
   -7.1370    0.8458    1.4515 O   0  0  0  0  0  0  0  0  0  0  0  0
   -6.8326    1.4155   -0.9381 O   0  0  0  0  0  0  0  0  0  0  0  0
   -4.2908   -0.0806    1.5872 C   0  0  0  0  0  0  0  0  0  0  0  0
   -2.9319   -0.2246    1.7817 C   0  0  0  0  0  0  0  0  0  0  0  0
   -0.0277   -1.4468    0.3825 C   0  0  0  0  0  0  0  0  0  0  0  0
   -0.5672   -2.5279    0.0487 O   0  0  0  0  0  0  0  0  0  0  0  0
    2.7581    0.7717    0.0222 C   0  0  0  0  0  0  0  0  0  0  0  0
    2.9046    2.0241    0.0423 O   0  0  0  0  0  0  0  0  0  0  0  0
    3.8543    0.0178   -0.1769 N   0  0  0  0  0  0  0  0  0  0  0  0
    5.1723    0.6176   -0.3643 C   0  0  0  0  0  0  0  0  0  0  0  0
    5.8726    0.7876    0.9659 C   0  0  0  0  0  0  0  0  0  0  0  0
    7.2269    1.4081    0.7335 C   0  0  0  0  0  0  0  0  0  0  0  0
    3.6686   -1.3132   -0.1935 C   0  0  0  0  0  0  0  0  0  0  0  0
    4.7149   -2.0166   -0.3830 O   0  0  0  0  0  0  0  0  0  0  0  0
    2.0100   -3.7831    3.3032 H   0  0  0  0  0  0  0  0  0  0  0  0
    1.3366   -2.5434    2.1912 H   0  0  0  0  0  0  0  0  0  0  0  0
    0.6653   -4.2095    2.1912 H   0  0  0  0  0  0  0  0  0  0  0  0
    3.5738   -3.7685    1.6380 H   0  0  0  0  0  0  0  0  0  0  0  0
    2.4145   -5.0824    1.0871 H   0  0  0  0  0  0  0  0  0  0  0  0
    3.1610   -3.7133   -0.7428 H   0  0  0  0  0  0  0  0  0  0  0  0
    1.3637   -3.5618   -0.3848 H   0  0  0  0  0  0  0  0  0  0  0  0
   -0.0805    1.7685    0.2043 H   0  0  0  0  0  0  0  0  0  0  0  0
   -0.5670   -0.2602    2.1290 H   0  0  0  0  0  0  0  0  0  0  0  0
   -1.8432    0.3650   -1.3441 H   0  0  0  0  0  0  0  0  0  0  0  0
   -4.2853    0.6226   -1.6877 H   0  0  0  0  0  0  0  0  0  0  0  0
   -7.4244   -1.7496    0.6354 H   0  0  0  0  0  0  0  0  0  0  0  0
   -8.1125   -1.0646   -0.8759 H   0  0  0  0  0  0  0  0  0  0  0  0
   -6.4535   -1.7534   -0.8759 H   0  0  0  0  0  0  0  0  0  0  0  0
   -4.9744   -0.2121    2.4389 H   0  0  0  0  0  0  0  0  0  0  0  0
   -2.5518   -0.4687    2.7846 H   0  0  0  0  0  0  0  0  0  0  0  0
    5.7778   -0.0343   -1.0112 H   0  0  0  0  0  0  0  0  0  0  0  0
    5.0495    1.6066   -0.8300 H   0  0  0  0  0  0  0  0  0  0  0  0
    5.2741    1.4422    1.6165 H   0  0  0  0  0  0  0  0  0  0  0  0
    5.9919   -0.1927    1.4505 H   0  0  0  0  0  0  0  0  0  0  0  0
    7.7016    1.6256    1.7016 H   0  0  0  0  0  0  0  0  0  0  0  0
    7.8577    0.7092    0.1646 H   0  0  0  0  0  0  0  0  0  0  0  0
    7.1095    2.3423    0.1646 H   0  0  0  0  0  0  0  0  0  0  0  0
  1  2  1  0
  2  3  1  0
  3  4  1  0
  4  5  1  0
  5  6  2  0
  6  7  1  0
  7  8  1  0
  8  9  1  0
  9 10  2  0
 10 11  1  0
 11 12  2  0
 12 13  1  0
 13 14  1  0
 13 15  2  0
 13 16  2  0
 12 17  1  0
 17 18  2  0
  8 19  1  0
 19 20  2  0
  6 21  1  0
 21 22  2  0
 21 23  1  0
 23 24  1  0
 24 25  1  0
 25 26  1  0
 23 27  1  0
 27 28  2  0
 27  4  1  0
 19  5  1  0
 18  9  1  0
  1 29  1  0
  1 30  1  0
  1 31  1  0
  2 32  1  0
  2 33  1  0
  3 34  1  0
  3 35  1  0
  7 36  1  0
  8 37  1  0
 10 38  1  0
 11 39  1  0
 14 40  1  0
 14 41  1  0
 14 42  1  0
 17 43  1  0
 18 44  1  0
 24 45  1  0
 24 46  1  0
 25 47  1  0
 25 48  1  0
 26 49  1  0
 26 50  1  0
 26 51  1  0
M  END
>  <Original_Name>  (75) 
CHEMBL507754

>  <ROSHAMBO_ComboTanimoto>  (75) 
0.803

>  <ROSHAMBO_ShapeTanimoto>  (75) 
0.621

>  <ROSHAMBO_ColorTanimoto>  (75) 
0.182

>  <ROSHAMBO_FitTverskyCombo>  (75) 
1.048

>  <ROSHAMBO_FitTversky>  (75) 
0.749

>  <ROSHAMBO_FitColorTversky>  (75) 
0.299

>  <ROSHAMBO_RefTverskyCombo>  (75) 
1.103

>  <ROSHAMBO_RefTversky>  (75) 
0.785

>  <ROSHAMBO_RefColorTversky>  (75) 
0.318

>  <ROSHAMBO_Overlap>  (75) 
968.005

$$$$
CHEMBL1079801_0_19
     RDKit          3D

 30 32  0  0  0  0  0  0  0  0999 V2000
    2.6941   -3.6681    0.4851 N   0  0  0  0  0  0  0  0  0  0  0  0
    1.7422   -3.0457    0.3454 C   0  0  0  0  0  0  0  0  0  0  0  0
    0.5485   -2.2675    0.1957 C   0  0  0  0  0  0  0  0  0  0  0  0
   -0.6895   -2.8299    0.1214 C   0  0  0  0  0  0  0  0  0  0  0  0
   -1.7931   -2.0010   -0.0230 C   0  0  0  0  0  0  0  0  0  0  0  0
   -1.6596   -0.6381   -0.0916 C   0  0  0  0  0  0  0  0  0  0  0  0
   -2.7008    0.2993   -0.2376 N   0  0  0  0  0  0  0  0  0  0  0  0
   -4.0559   -0.0228   -0.3388 C   0  0  0  0  0  0  0  0  0  0  0  0
   -4.4866   -1.1942   -0.3095 O   0  0  0  0  0  0  0  0  0  0  0  0
   -5.0369    1.1194   -0.4911 C   0  0  0  0  0  0  0  0  0  0  0  0
   -6.3725    0.8422    0.1312 C   0  0  0  0  0  0  0  0  0  0  0  0
   -6.2724    0.8395   -1.3451 C   0  0  0  0  0  0  0  0  0  0  0  0
   -0.4008   -0.1598   -0.0106 N   0  0  0  0  0  0  0  0  0  0  0  0
    0.7095   -0.8786    0.1279 C   0  0  0  0  0  0  0  0  0  0  0  0
    2.0263   -0.2850    0.2067 C   0  0  0  0  0  0  0  0  0  0  0  0
    2.2892    1.0597    0.1516 C   0  0  0  0  0  0  0  0  0  0  0  0
    3.6797    1.1664    0.2648 C   0  0  0  0  0  0  0  0  0  0  0  0
    4.1644   -0.1229    0.3807 C   0  0  0  0  0  0  0  0  0  0  0  0
    3.1389   -0.9493    0.3404 O   0  0  0  0  0  0  0  0  0  0  0  0
   -0.8125   -3.9217    0.1750 H   0  0  0  0  0  0  0  0  0  0  0  0
   -2.7968   -2.4470   -0.0838 H   0  0  0  0  0  0  0  0  0  0  0  0
   -2.4437    1.2961   -0.2722 H   0  0  0  0  0  0  0  0  0  0  0  0
   -4.2853    1.9220   -0.4602 H   0  0  0  0  0  0  0  0  0  0  0  0
   -6.5381   -0.1034    0.6682 H   0  0  0  0  0  0  0  0  0  0  0  0
   -7.0064    1.3732    0.8567 H   0  0  0  0  0  0  0  0  0  0  0  0
   -6.3550   -0.1061   -1.9008 H   0  0  0  0  0  0  0  0  0  0  0  0
   -6.7899    1.3638   -2.1620 H   0  0  0  0  0  0  0  0  0  0  0  0
    1.5629    1.8785    0.0420 H   0  0  0  0  0  0  0  0  0  0  0  0
    4.2709    2.0940    0.2620 H   0  0  0  0  0  0  0  0  0  0  0  0
    5.2212   -0.4089    0.4879 H   0  0  0  0  0  0  0  0  0  0  0  0
  1  2  3  0
  2  3  1  0
  3  4  2  0
  4  5  1  0
  5  6  2  0
  6  7  1  0
  7  8  1  0
  8  9  2  0
  8 10  1  0
 10 11  1  0
 11 12  1  0
  6 13  1  0
 13 14  2  0
 14 15  1  0
 15 16  2  0
 16 17  1  0
 17 18  2  0
 18 19  1  0
 14  3  1  0
 19 15  1  0
 12 10  1  0
  4 20  1  0
  5 21  1  0
  7 22  1  0
 10 23  1  0
 11 24  1  0
 11 25  1  0
 12 26  1  0
 12 27  1  0
 16 28  1  0
 17 29  1  0
 18 30  1  0
M  END
>  <Original_Name>  (76) 
CHEMBL1079801

>  <ROSHAMBO_ComboTanimoto>  (76) 
0.803

>  <ROSHAMBO_ShapeTanimoto>  (76) 
0.607

>  <ROSHAMBO_ColorTanimoto>  (76) 
0.196

>  <ROSHAMBO_FitTverskyCombo>  (76) 
1.328

>  <ROSHAMBO_FitTversky>  (76) 
0.876

>  <ROSHAMBO_FitColorTversky>  (76) 
0.452

>  <ROSHAMBO_RefTverskyCombo>  (76) 
0.921

>  <ROSHAMBO_RefTversky>  (76) 
0.664

>  <ROSHAMBO_RefColorTversky>  (76) 
0.257

>  <ROSHAMBO_Overlap>  (76) 
805.835

$$$$
CHEMBL178435_0_5
     RDKit          3D

 37 40  0  0  0  0  0  0  0  0999 V2000
    5.8592    0.0710    0.2383 C   0  0  0  0  0  0  0  0  0  0  0  0
    4.4019    0.3953    0.2312 C   0  0  0  0  0  0  0  0  0  0  0  0
    3.9868    1.6898    0.3175 C   0  0  0  0  0  0  0  0  0  0  0  0
    2.6357    1.9796    0.3101 C   0  0  0  0  0  0  0  0  0  0  0  0
    1.7217    0.9416    0.2146 C   0  0  0  0  0  0  0  0  0  0  0  0
    0.2601    0.9747    0.1860 C   0  0  0  0  0  0  0  0  0  0  0  0
   -0.1916   -0.4341    0.0730 C   0  0  0  0  0  0  0  0  0  0  0  0
   -1.4498   -0.9945    0.0052 C   0  0  0  0  0  0  0  0  0  0  0  0
   -2.6682   -0.1410    0.0420 C   0  0  0  0  0  0  0  0  0  0  0  0
   -3.0826    0.2718   -1.3315 C   0  0  0  0  0  0  0  0  0  0  0  0
   -4.3032   -0.5652   -1.5984 C   0  0  0  0  0  0  0  0  0  0  0  0
   -4.7053   -1.0224   -0.2344 C   0  0  0  0  0  0  0  0  0  0  0  0
   -6.3653   -0.2107    0.3392 Br  0  0  0  0  0  0  0  0  0  0  0  0
   -3.6774   -0.8343    0.6323 O   0  0  0  0  0  0  0  0  0  0  0  0
   -1.5485   -2.3298   -0.0949 N   0  0  0  0  0  0  0  0  0  0  0  0
   -0.4680   -3.1600   -0.1329 C   0  0  0  0  0  0  0  0  0  0  0  0
   -0.6263   -4.5674   -0.2396 N   0  0  0  0  0  0  0  0  0  0  0  0
    0.7373   -2.5686   -0.0640 N   0  0  0  0  0  0  0  0  0  0  0  0
    0.9415   -1.2464    0.0374 C   0  0  0  0  0  0  0  0  0  0  0  0
    2.1115   -0.3756    0.1261 C   0  0  0  0  0  0  0  0  0  0  0  0
    3.4651   -0.6411    0.1353 C   0  0  0  0  0  0  0  0  0  0  0  0
    6.2123   -0.0075    1.2771 H   0  0  0  0  0  0  0  0  0  0  0  0
    6.0244   -0.8858   -0.2785 H   0  0  0  0  0  0  0  0  0  0  0  0
    6.4146    0.8676   -0.2785 H   0  0  0  0  0  0  0  0  0  0  0  0
    4.7249    2.5020    0.3927 H   0  0  0  0  0  0  0  0  0  0  0  0
    2.2896    3.0214    0.3792 H   0  0  0  0  0  0  0  0  0  0  0  0
   -0.1279    1.4250    1.1116 H   0  0  0  0  0  0  0  0  0  0  0  0
   -0.1075    1.5789   -0.6565 H   0  0  0  0  0  0  0  0  0  0  0  0
   -2.4414    0.7687    0.6174 H   0  0  0  0  0  0  0  0  0  0  0  0
   -3.3269    1.3438   -1.3627 H   0  0  0  0  0  0  0  0  0  0  0  0
   -2.2903    0.1234   -2.0800 H   0  0  0  0  0  0  0  0  0  0  0  0
   -5.0990    0.0345   -2.0644 H   0  0  0  0  0  0  0  0  0  0  0  0
   -4.1143   -1.3956   -2.2946 H   0  0  0  0  0  0  0  0  0  0  0  0
   -4.9157   -2.1018   -0.2616 H   0  0  0  0  0  0  0  0  0  0  0  0
    0.2025   -5.1783   -0.2669 H   0  0  0  0  0  0  0  0  0  0  0  0
   -1.5700   -4.9771   -0.2897 H   0  0  0  0  0  0  0  0  0  0  0  0
    3.8138   -1.6821    0.0663 H   0  0  0  0  0  0  0  0  0  0  0  0
  1  2  1  0
  2  3  2  0
  3  4  1  0
  4  5  2  0
  5  6  1  0
  6  7  1  0
  7  8  2  0
  8  9  1  0
  9 10  1  0
 10 11  1  0
 11 12  1  0
 12 13  1  0
 12 14  1  0
  8 15  1  0
 15 16  2  0
 16 17  1  0
 16 18  1  0
 18 19  2  0
 19 20  1  0
 20 21  2  0
 21  2  1  0
 20  5  1  0
 19  7  1  0
 14  9  1  0
  1 22  1  0
  1 23  1  0
  1 24  1  0
  3 25  1  0
  4 26  1  0
  6 27  1  0
  6 28  1  0
  9 29  1  0
 10 30  1  0
 10 31  1  0
 11 32  1  0
 11 33  1  0
 12 34  1  0
 17 35  1  0
 17 36  1  0
 21 37  1  0
M  END
>  <Original_Name>  (77) 
CHEMBL178435

>  <ROSHAMBO_ComboTanimoto>  (77) 
0.802

>  <ROSHAMBO_ShapeTanimoto>  (77) 
0.629

>  <ROSHAMBO_ColorTanimoto>  (77) 
0.173

>  <ROSHAMBO_FitTverskyCombo>  (77) 
1.23

>  <ROSHAMBO_FitTversky>  (77) 
0.851

>  <ROSHAMBO_FitColorTversky>  (77) 
0.379

>  <ROSHAMBO_RefTverskyCombo>  (77) 
0.948

>  <ROSHAMBO_RefTversky>  (77) 
0.707

>  <ROSHAMBO_RefColorTversky>  (77) 
0.241

>  <ROSHAMBO_Overlap>  (77) 
861.729

$$$$
CHEMBL165760_0_64
     RDKit          3D

 41 43  0  0  0  0  0  0  0  0999 V2000
    7.0410    1.1049   -1.1588 C   0  0  0  0  0  0  0  0  0  0  0  0
    5.8564    0.3725   -1.2288 O   0  0  0  0  0  0  0  0  0  0  0  0
    4.7704    0.5789   -0.3940 C   0  0  0  0  0  0  0  0  0  0  0  0
    4.8512    1.5624    0.5669 C   0  0  0  0  0  0  0  0  0  0  0  0
    3.7982    1.8042    1.4190 C   0  0  0  0  0  0  0  0  0  0  0  0
    2.6460    1.0674    1.3259 C   0  0  0  0  0  0  0  0  0  0  0  0
    2.5867    0.0786    0.3473 C   0  0  0  0  0  0  0  0  0  0  0  0
    1.3636   -0.7061    0.2458 C   0  0  0  0  0  0  0  0  0  0  0  0
    1.1151   -1.7011   -0.6305 N   0  0  0  0  0  0  0  0  0  0  0  0
   -0.0814   -2.1699   -0.4237 N   0  0  0  0  0  0  0  0  0  0  0  0
   -0.6662   -1.5073    0.5905 C   0  0  0  0  0  0  0  0  0  0  0  0
   -2.0166   -1.7941    1.0720 C   0  0  0  0  0  0  0  0  0  0  0  0
   -3.0646   -1.0036    0.3786 C   0  0  0  0  0  0  0  0  0  0  0  0
   -3.6758   -1.4763   -0.7650 C   0  0  0  0  0  0  0  0  0  0  0  0
   -4.6598   -0.7446   -1.4243 C   0  0  0  0  0  0  0  0  0  0  0  0
   -5.0501    0.4865   -0.9410 C   0  0  0  0  0  0  0  0  0  0  0  0
   -6.0968    1.2564   -1.6491 C   0  0  0  0  0  0  0  0  0  0  0  0
   -4.4352    0.9511    0.2007 C   0  0  0  0  0  0  0  0  0  0  0  0
   -4.8421    2.2614    0.7258 C   0  0  0  0  0  0  0  0  0  0  0  0
   -3.4627    0.2291    0.8533 C   0  0  0  0  0  0  0  0  0  0  0  0
    0.2460   -0.6044    0.9915 N   0  0  0  0  0  0  0  0  0  0  0  0
    3.6252   -0.1696   -0.5032 C   0  0  0  0  0  0  0  0  0  0  0  0
    7.3082    1.2701   -0.1047 H   0  0  0  0  0  0  0  0  0  0  0  0
    7.8469    0.5472   -1.6583 H   0  0  0  0  0  0  0  0  0  0  0  0
    6.9024    2.0751   -1.6583 H   0  0  0  0  0  0  0  0  0  0  0  0
    5.7692    2.1622    0.6542 H   0  0  0  0  0  0  0  0  0  0  0  0
    3.8816    2.5940    2.1801 H   0  0  0  0  0  0  0  0  0  0  0  0
    1.7973    1.2511    2.0012 H   0  0  0  0  0  0  0  0  0  0  0  0
   -2.2240   -2.8630    0.9155 H   0  0  0  0  0  0  0  0  0  0  0  0
   -2.0497   -1.5185    2.1364 H   0  0  0  0  0  0  0  0  0  0  0  0
   -3.3778   -2.4564   -1.1658 H   0  0  0  0  0  0  0  0  0  0  0  0
   -5.1274   -1.1499   -2.3337 H   0  0  0  0  0  0  0  0  0  0  0  0
   -6.7559    1.7412   -0.9138 H   0  0  0  0  0  0  0  0  0  0  0  0
   -5.6241    2.0236   -2.2798 H   0  0  0  0  0  0  0  0  0  0  0  0
   -6.6884    0.5766   -2.2798 H   0  0  0  0  0  0  0  0  0  0  0  0
   -4.8337    2.2344    1.8255 H   0  0  0  0  0  0  0  0  0  0  0  0
   -4.1409    3.0318    0.3726 H   0  0  0  0  0  0  0  0  0  0  0  0
   -5.8564    2.4991    0.3726 H   0  0  0  0  0  0  0  0  0  0  0  0
   -2.9981    0.6387    1.7624 H   0  0  0  0  0  0  0  0  0  0  0  0
    0.1098    0.0688    1.7590 H   0  0  0  0  0  0  0  0  0  0  0  0
    3.5453   -0.9587   -1.2655 H   0  0  0  0  0  0  0  0  0  0  0  0
  1  2  1  0
  2  3  1  0
  3  4  2  0
  4  5  1  0
  5  6  2  0
  6  7  1  0
  7  8  1  0
  8  9  2  0
  9 10  1  0
 10 11  2  0
 11 12  1  0
 12 13  1  0
 13 14  2  0
 14 15  1  0
 15 16  2  0
 16 17  1  0
 16 18  1  0
 18 19  1  0
 18 20  2  0
 11 21  1  0
  7 22  2  0
 22  3  1  0
 21  8  1  0
 20 13  1  0
  1 23  1  0
  1 24  1  0
  1 25  1  0
  4 26  1  0
  5 27  1  0
  6 28  1  0
 12 29  1  0
 12 30  1  0
 14 31  1  0
 15 32  1  0
 17 33  1  0
 17 34  1  0
 17 35  1  0
 19 36  1  0
 19 37  1  0
 19 38  1  0
 20 39  1  0
 21 40  1  0
 22 41  1  0
M  END
>  <Original_Name>  (78) 
CHEMBL165760

>  <ROSHAMBO_ComboTanimoto>  (78) 
0.795

>  <ROSHAMBO_ShapeTanimoto>  (78) 
0.601

>  <ROSHAMBO_ColorTanimoto>  (78) 
0.194

>  <ROSHAMBO_FitTverskyCombo>  (78) 
1.169

>  <ROSHAMBO_FitTversky>  (78) 
0.812

>  <ROSHAMBO_FitColorTversky>  (78) 
0.356

>  <ROSHAMBO_RefTverskyCombo>  (78) 
0.998

>  <ROSHAMBO_RefTversky>  (78) 
0.698

>  <ROSHAMBO_RefColorTversky>  (78) 
0.3

>  <ROSHAMBO_Overlap>  (78) 
851.867

$$$$
CHEMBL286947_0_53
     RDKit          3D

 35 38  0  0  0  0  0  0  0  0999 V2000
   -0.5540   -4.7760   -0.1280 C   0  0  0  0  0  0  0  0  0  0  0  0
   -1.0173   -3.3766   -0.0760 C   0  0  0  0  0  0  0  0  0  0  0  0
   -2.2836   -2.9329   -0.1038 N   0  0  0  0  0  0  0  0  0  0  0  0
   -2.3045   -1.6140   -0.0383 N   0  0  0  0  0  0  0  0  0  0  0  0
   -3.4862   -0.8196   -0.0451 C   0  0  0  0  0  0  0  0  0  0  0  0
   -3.4810    0.4896   -0.4368 C   0  0  0  0  0  0  0  0  0  0  0  0
   -4.6661    1.2348   -0.4283 C   0  0  0  0  0  0  0  0  0  0  0  0
   -5.8500    0.6645   -0.0274 C   0  0  0  0  0  0  0  0  0  0  0  0
   -5.8660   -0.6730    0.3749 C   0  0  0  0  0  0  0  0  0  0  0  0
   -7.0595   -1.3184    0.8001 N   0  0  0  0  0  0  0  0  0  0  0  0
   -4.6883   -1.3675    0.3527 C   0  0  0  0  0  0  0  0  0  0  0  0
   -1.0153   -1.1749    0.0349 C   0  0  0  0  0  0  0  0  0  0  0  0
   -0.2074   -2.2829    0.0111 C   0  0  0  0  0  0  0  0  0  0  0  0
    1.1797   -2.1155    0.0744 C   0  0  0  0  0  0  0  0  0  0  0  0
    1.9047   -3.1212    0.0526 O   0  0  0  0  0  0  0  0  0  0  0  0
    1.6417   -0.8215    0.1578 C   0  0  0  0  0  0  0  0  0  0  0  0
    3.0053   -0.6220    0.2218 C   0  0  0  0  0  0  0  0  0  0  0  0
    3.4697    0.6671    0.3050 C   0  0  0  0  0  0  0  0  0  0  0  0
    2.5845    1.7227    0.3231 C   0  0  0  0  0  0  0  0  0  0  0  0
    1.2241    1.5387    0.2600 C   0  0  0  0  0  0  0  0  0  0  0  0
    0.7394    0.2269    0.1748 C   0  0  0  0  0  0  0  0  0  0  0  0
   -0.5662    0.0388    0.1137 O   0  0  0  0  0  0  0  0  0  0  0  0
   -0.4273   -5.1586    0.8955 H   0  0  0  0  0  0  0  0  0  0  0  0
   -1.2972   -5.3888   -0.6592 H   0  0  0  0  0  0  0  0  0  0  0  0
    0.4081   -4.8243   -0.6592 H   0  0  0  0  0  0  0  0  0  0  0  0
   -2.5409    0.9603   -0.7605 H   0  0  0  0  0  0  0  0  0  0  0  0
   -4.6493    2.2878   -0.7458 H   0  0  0  0  0  0  0  0  0  0  0  0
   -6.7773    1.2562   -0.0233 H   0  0  0  0  0  0  0  0  0  0  0  0
   -7.0354   -2.3064    1.0903 H   0  0  0  0  0  0  0  0  0  0  0  0
   -7.9481   -0.7979    0.8180 H   0  0  0  0  0  0  0  0  0  0  0  0
   -4.7000   -2.4209    0.6694 H   0  0  0  0  0  0  0  0  0  0  0  0
    3.7019   -1.4733    0.2066 H   0  0  0  0  0  0  0  0  0  0  0  0
    4.5518    0.8579    0.3575 H   0  0  0  0  0  0  0  0  0  0  0  0
    2.9798    2.7470    0.3903 H   0  0  0  0  0  0  0  0  0  0  0  0
    0.5357    2.3965    0.2759 H   0  0  0  0  0  0  0  0  0  0  0  0
  1  2  1  0
  2  3  2  0
  3  4  1  0
  4  5  1  0
  5  6  2  0
  6  7  1  0
  7  8  2  0
  8  9  1  0
  9 10  1  0
  9 11  2  0
  4 12  1  0
 12 13  2  0
 13 14  1  0
 14 15  2  0
 14 16  1  0
 16 17  2  0
 17 18  1  0
 18 19  2  0
 19 20  1  0
 20 21  2  0
 21 22  1  0
 13  2  1  0
 21 16  1  0
 11  5  1  0
 22 12  1  0
  1 23  1  0
  1 24  1  0
  1 25  1  0
  6 26  1  0
  7 27  1  0
  8 28  1  0
 10 29  1  0
 10 30  1  0
 11 31  1  0
 17 32  1  0
 18 33  1  0
 19 34  1  0
 20 35  1  0
M  END
>  <Original_Name>  (79) 
CHEMBL286947

>  <ROSHAMBO_ComboTanimoto>  (79) 
0.793

>  <ROSHAMBO_ShapeTanimoto>  (79) 
0.597

>  <ROSHAMBO_ColorTanimoto>  (79) 
0.196

>  <ROSHAMBO_FitTverskyCombo>  (79) 
1.163

>  <ROSHAMBO_FitTversky>  (79) 
0.788

>  <ROSHAMBO_FitColorTversky>  (79) 
0.375

>  <ROSHAMBO_RefTverskyCombo>  (79) 
1.002

>  <ROSHAMBO_RefTversky>  (79) 
0.711

>  <ROSHAMBO_RefColorTversky>  (79) 
0.292

>  <ROSHAMBO_Overlap>  (79) 
870.028

$$$$
CHEMBL17859_0_58
     RDKit          3D

 32 34  0  0  0  0  0  0  0  0999 V2000
    4.2470    1.1522    0.1910 N   0  0  0  0  0  0  0  0  0  0  0  0
    3.4248   -0.0032    0.0521 C   0  0  0  0  0  0  0  0  0  0  0  0
    2.0462    0.1471    0.1918 C   0  0  0  0  0  0  0  0  0  0  0  0
    1.2607    1.1855    0.4415 N   0  0  0  0  0  0  0  0  0  0  0  0
   -0.0255    0.7528    0.4695 C   0  0  0  0  0  0  0  0  0  0  0  0
   -0.0662   -0.5754    0.2357 N   0  0  0  0  0  0  0  0  0  0  0  0
   -1.2321   -1.4422    0.1765 C   0  0  0  0  0  0  0  0  0  0  0  0
   -2.0708   -1.0879   -1.4122 S   0  0  0  0  0  0  0  0  0  0  0  0
   -3.3519   -0.0189   -0.6609 C   0  0  0  0  0  0  0  0  0  0  0  0
   -4.6187   -0.0608   -1.4760 C   0  0  0  0  0  0  0  0  0  0  0  0
   -5.5586    0.7522   -0.8841 O   0  0  0  0  0  0  0  0  0  0  0  0
   -3.5146   -0.6963    0.6469 C   0  0  0  0  0  0  0  0  0  0  0  0
   -4.4297   -1.7538    0.4796 O   0  0  0  0  0  0  0  0  0  0  0  0
   -2.2408   -1.1279    1.2077 C   0  0  0  0  0  0  0  0  0  0  0  0
   -1.7946   -0.1877    2.1533 O   0  0  0  0  0  0  0  0  0  0  0  0
    1.2221   -0.9540    0.0626 C   0  0  0  0  0  0  0  0  0  0  0  0
    1.7690   -2.1722   -0.1997 N   0  0  0  0  0  0  0  0  0  0  0  0
    3.1016   -2.3117   -0.3337 C   0  0  0  0  0  0  0  0  0  0  0  0
    3.7979   -3.9030   -0.6748 Cl  0  0  0  0  0  0  0  0  0  0  0  0
    3.8844   -1.2251   -0.2038 N   0  0  0  0  0  0  0  0  0  0  0  0
    5.2692    1.0716    0.0930 H   0  0  0  0  0  0  0  0  0  0  0  0
    3.8193    2.0679    0.3895 H   0  0  0  0  0  0  0  0  0  0  0  0
   -0.9031    1.3895    0.6551 H   0  0  0  0  0  0  0  0  0  0  0  0
   -0.8819   -2.4765    0.3089 H   0  0  0  0  0  0  0  0  0  0  0  0
   -3.1017    1.0501   -0.5921 H   0  0  0  0  0  0  0  0  0  0  0  0
   -4.4129    0.2952   -2.4962 H   0  0  0  0  0  0  0  0  0  0  0  0
   -4.9965   -1.0928   -1.5235 H   0  0  0  0  0  0  0  0  0  0  0  0
   -5.4804    0.6846    0.1005 H   0  0  0  0  0  0  0  0  0  0  0  0
   -3.9158    0.0118    1.3869 H   0  0  0  0  0  0  0  0  0  0  0  0
   -4.7167   -2.0855    1.3671 H   0  0  0  0  0  0  0  0  0  0  0  0
   -2.4013   -2.0829    1.7295 H   0  0  0  0  0  0  0  0  0  0  0  0
   -1.9590   -0.5341    3.0660 H   0  0  0  0  0  0  0  0  0  0  0  0
  1  2  1  0
  2  3  2  0
  3  4  1  0
  4  5  2  0
  5  6  1  0
  6  7  1  0
  7  8  1  0
  8  9  1  0
  9 10  1  0
 10 11  1  0
  9 12  1  0
 12 13  1  0
 12 14  1  0
 14 15  1  0
  6 16  1  0
 16 17  2  0
 17 18  1  0
 18 19  1  0
 18 20  2  0
 20  2  1  0
 16  3  1  0
 14  7  1  0
  1 21  1  0
  1 22  1  0
  5 23  1  0
  7 24  1  0
  9 25  1  0
 10 26  1  0
 10 27  1  0
 11 28  1  0
 12 29  1  0
 13 30  1  0
 14 31  1  0
 15 32  1  0
M  END
>  <Original_Name>  (80) 
CHEMBL17859

>  <ROSHAMBO_ComboTanimoto>  (80) 
0.793

>  <ROSHAMBO_ShapeTanimoto>  (80) 
0.58

>  <ROSHAMBO_ColorTanimoto>  (80) 
0.213

>  <ROSHAMBO_FitTverskyCombo>  (80) 
1.192

>  <ROSHAMBO_FitTversky>  (80) 
0.838

>  <ROSHAMBO_FitColorTversky>  (80) 
0.354

>  <ROSHAMBO_RefTverskyCombo>  (80) 
1.001

>  <ROSHAMBO_RefTversky>  (80) 
0.653

>  <ROSHAMBO_RefColorTversky>  (80) 
0.349

>  <ROSHAMBO_Overlap>  (80) 
793.306

$$$$
CHEMBL360124_0_96
     RDKit          3D

 36 39  0  0  0  0  0  0  0  0999 V2000
    5.7133   -0.0423   -0.0219 C   0  0  0  0  0  0  0  0  0  0  0  0
    4.2518    0.2551   -0.0211 C   0  0  0  0  0  0  0  0  0  0  0  0
    3.7776    1.5449   -0.0716 C   0  0  0  0  0  0  0  0  0  0  0  0
    2.4304    1.8401   -0.0715 C   0  0  0  0  0  0  0  0  0  0  0  0
    1.4963    0.8299   -0.0197 C   0  0  0  0  0  0  0  0  0  0  0  0
   -0.0053    0.8286   -0.0010 C   0  0  0  0  0  0  0  0  0  0  0  0
   -0.3746   -0.5875    0.0509 C   0  0  0  0  0  0  0  0  0  0  0  0
   -1.6005   -1.2138    0.0714 C   0  0  0  0  0  0  0  0  0  0  0  0
   -2.8913   -0.5379    0.0241 C   0  0  0  0  0  0  0  0  0  0  0  0
   -3.2350    0.5034    0.8408 C   0  0  0  0  0  0  0  0  0  0  0  0
   -4.4812    1.1321    0.7492 C   0  0  0  0  0  0  0  0  0  0  0  0
   -5.4168    0.7219   -0.1744 C   0  0  0  0  0  0  0  0  0  0  0  0
   -5.0741   -0.3275   -0.9986 C   0  0  0  0  0  0  0  0  0  0  0  0
   -3.8552   -0.9480   -0.9149 C   0  0  0  0  0  0  0  0  0  0  0  0
   -1.6097   -2.5625    0.1143 N   0  0  0  0  0  0  0  0  0  0  0  0
   -0.4986   -3.3289    0.1385 C   0  0  0  0  0  0  0  0  0  0  0  0
   -0.5802   -4.7471    0.1841 N   0  0  0  0  0  0  0  0  0  0  0  0
    0.6703   -2.6725    0.1171 N   0  0  0  0  0  0  0  0  0  0  0  0
    0.8083   -1.3395    0.0741 C   0  0  0  0  0  0  0  0  0  0  0  0
    1.9546   -0.4563    0.0306 C   0  0  0  0  0  0  0  0  0  0  0  0
    3.3149   -0.7577    0.0308 C   0  0  0  0  0  0  0  0  0  0  0  0
    6.0732   -0.1155    1.0149 H   0  0  0  0  0  0  0  0  0  0  0  0
    5.8932   -0.9955   -0.5407 H   0  0  0  0  0  0  0  0  0  0  0  0
    6.2514    0.7647   -0.5407 H   0  0  0  0  0  0  0  0  0  0  0  0
    4.5005    2.3730   -0.1137 H   0  0  0  0  0  0  0  0  0  0  0  0
    2.1003    2.8885   -0.1131 H   0  0  0  0  0  0  0  0  0  0  0  0
   -0.3828    1.3607    0.8847 H   0  0  0  0  0  0  0  0  0  0  0  0
   -0.4331    1.3386   -0.8766 H   0  0  0  0  0  0  0  0  0  0  0  0
   -2.5116    0.8566    1.5905 H   0  0  0  0  0  0  0  0  0  0  0  0
   -4.7176    1.9669    1.4253 H   0  0  0  0  0  0  0  0  0  0  0  0
   -6.3983    1.2125   -0.2509 H   0  0  0  0  0  0  0  0  0  0  0  0
   -5.8008   -0.6778   -1.7464 H   0  0  0  0  0  0  0  0  0  0  0  0
   -3.6262   -1.7821   -1.5944 H   0  0  0  0  0  0  0  0  0  0  0  0
    0.2808   -5.3121    0.2019 H   0  0  0  0  0  0  0  0  0  0  0  0
   -1.5003   -5.2098    0.1992 H   0  0  0  0  0  0  0  0  0  0  0  0
    3.6438   -1.8065    0.0724 H   0  0  0  0  0  0  0  0  0  0  0  0
  1  2  1  0
  2  3  2  0
  3  4  1  0
  4  5  2  0
  5  6  1  0
  6  7  1  0
  7  8  2  0
  8  9  1  0
  9 10  2  0
 10 11  1  0
 11 12  2  0
 12 13  1  0
 13 14  2  0
  8 15  1  0
 15 16  2  0
 16 17  1  0
 16 18  1  0
 18 19  2  0
 19 20  1  0
 20 21  2  0
 21  2  1  0
 20  5  1  0
 19  7  1  0
 14  9  1  0
  1 22  1  0
  1 23  1  0
  1 24  1  0
  3 25  1  0
  4 26  1  0
  6 27  1  0
  6 28  1  0
 10 29  1  0
 11 30  1  0
 12 31  1  0
 13 32  1  0
 14 33  1  0
 17 34  1  0
 17 35  1  0
 21 36  1  0
M  END
>  <Original_Name>  (81) 
CHEMBL360124

>  <ROSHAMBO_ComboTanimoto>  (81) 
0.79

>  <ROSHAMBO_ShapeTanimoto>  (81) 
0.614

>  <ROSHAMBO_ColorTanimoto>  (81) 
0.176

>  <ROSHAMBO_FitTverskyCombo>  (81) 
1.217

>  <ROSHAMBO_FitTversky>  (81) 
0.832

>  <ROSHAMBO_FitColorTversky>  (81) 
0.385

>  <ROSHAMBO_RefTverskyCombo>  (81) 
0.946

>  <ROSHAMBO_RefTversky>  (81) 
0.701

>  <ROSHAMBO_RefColorTversky>  (81) 
0.245

>  <ROSHAMBO_Overlap>  (81) 
855.556

$$$$
CHEMBL406298_0_4
     RDKit          3D

 22 24  0  0  0  0  0  0  0  0999 V2000
    0.2462   -3.3033    0.1237 N   0  0  0  0  0  0  0  0  0  0  0  0
    0.8184   -1.9753    0.2312 C   0  0  0  0  0  0  0  0  0  0  0  0
    2.1437   -1.8565   -0.0098 N   0  0  0  0  0  0  0  0  0  0  0  0
    2.6424   -0.5937    0.1013 C   0  0  0  0  0  0  0  0  0  0  0  0
    4.0422   -0.3034   -0.1259 C   0  0  0  0  0  0  0  0  0  0  0  0
    5.0145   -1.2119   -0.4677 C   0  0  0  0  0  0  0  0  0  0  0  0
    6.2220   -0.5222   -0.5909 C   0  0  0  0  0  0  0  0  0  0  0  0
    5.8905    0.7849   -0.3091 C   0  0  0  0  0  0  0  0  0  0  0  0
    4.6147    0.8491   -0.0475 O   0  0  0  0  0  0  0  0  0  0  0  0
    1.8060    0.4481    0.4384 C   0  0  0  0  0  0  0  0  0  0  0  0
    2.0912    2.2224    0.6763 S   0  0  0  0  0  0  0  0  0  0  0  0
    0.4037    2.6174    1.0736 C   0  0  0  0  0  0  0  0  0  0  0  0
   -0.2320    1.4212    1.0005 C   0  0  0  0  0  0  0  0  0  0  0  0
    0.4589    0.3329    0.6843 C   0  0  0  0  0  0  0  0  0  0  0  0
    0.0231   -0.9680    0.5545 N   0  0  0  0  0  0  0  0  0  0  0  0
   -0.7588   -3.4467    0.2977 H   0  0  0  0  0  0  0  0  0  0  0  0
    0.8448   -4.1033   -0.1265 H   0  0  0  0  0  0  0  0  0  0  0  0
    4.8675   -2.2917   -0.6177 H   0  0  0  0  0  0  0  0  0  0  0  0
    7.2101   -0.9287   -0.8526 H   0  0  0  0  0  0  0  0  0  0  0  0
    6.5880    1.6354   -0.3054 H   0  0  0  0  0  0  0  0  0  0  0  0
   -0.0241    3.6003    1.3206 H   0  0  0  0  0  0  0  0  0  0  0  0
   -1.3113    1.3537    1.2016 H   0  0  0  0  0  0  0  0  0  0  0  0
  1  2  1  0
  2  3  2  0
  3  4  1  0
  4  5  1  0
  5  6  2  0
  6  7  1  0
  7  8  2  0
  8  9  1  0
  4 10  2  0
 10 11  1  0
 11 12  1  0
 12 13  2  0
 13 14  1  0
 14 15  2  0
 15  2  1  0
  9  5  1  0
 14 10  1  0
  1 16  1  0
  1 17  1  0
  6 18  1  0
  7 19  1  0
  8 20  1  0
 12 21  1  0
 13 22  1  0
M  END
>  <Original_Name>  (82) 
CHEMBL406298

>  <ROSHAMBO_ComboTanimoto>  (82) 
0.788

>  <ROSHAMBO_ShapeTanimoto>  (82) 
0.525

>  <ROSHAMBO_ColorTanimoto>  (82) 
0.263

>  <ROSHAMBO_FitTverskyCombo>  (82) 
1.46

>  <ROSHAMBO_FitTversky>  (82) 
0.902

>  <ROSHAMBO_FitColorTversky>  (82) 
0.559

>  <ROSHAMBO_RefTverskyCombo>  (82) 
0.888

>  <ROSHAMBO_RefTversky>  (82) 
0.557

>  <ROSHAMBO_RefColorTversky>  (82) 
0.331

>  <ROSHAMBO_Overlap>  (82) 
671.278

$$$$
CHEMBL178435_0_60
     RDKit          3D

 37 40  0  0  0  0  0  0  0  0999 V2000
    7.0662    1.2531    0.5741 C   0  0  0  0  0  0  0  0  0  0  0  0
    5.8216    0.4698    0.3510 C   0  0  0  0  0  0  0  0  0  0  0  0
    5.8813   -0.8369   -0.1325 C   0  0  0  0  0  0  0  0  0  0  0  0
    4.7366   -1.5770   -0.3449 C   0  0  0  0  0  0  0  0  0  0  0  0
    3.5085   -1.0110   -0.0730 C   0  0  0  0  0  0  0  0  0  0  0  0
    2.1482   -1.5791   -0.2110 C   0  0  0  0  0  0  0  0  0  0  0  0
    1.2369   -0.4846    0.2388 C   0  0  0  0  0  0  0  0  0  0  0  0
   -0.1238   -0.4305    0.3296 C   0  0  0  0  0  0  0  0  0  0  0  0
   -0.9816   -1.6044   -0.0574 C   0  0  0  0  0  0  0  0  0  0  0  0
   -1.3347   -1.5077   -1.5073 C   0  0  0  0  0  0  0  0  0  0  0  0
   -2.7620   -1.9927   -1.5351 C   0  0  0  0  0  0  0  0  0  0  0  0
   -3.2106   -1.7859   -0.1174 C   0  0  0  0  0  0  0  0  0  0  0  0
   -4.1966   -0.1036    0.0127 Br  0  0  0  0  0  0  0  0  0  0  0  0
   -2.1179   -1.6823    0.6834 O   0  0  0  0  0  0  0  0  0  0  0  0
   -0.6944    0.7015    0.7754 N   0  0  0  0  0  0  0  0  0  0  0  0
    0.0263    1.7776    1.1335 C   0  0  0  0  0  0  0  0  0  0  0  0
   -0.5580    2.9733    1.6034 N   0  0  0  0  0  0  0  0  0  0  0  0
    1.3644    1.7208    1.0429 N   0  0  0  0  0  0  0  0  0  0  0  0
    1.9878    0.6133    0.6033 C   0  0  0  0  0  0  0  0  0  0  0  0
    3.3985    0.2843    0.4089 C   0  0  0  0  0  0  0  0  0  0  0  0
    4.5779    0.9948    0.6087 C   0  0  0  0  0  0  0  0  0  0  0  0
    7.2413    1.3633    1.6545 H   0  0  0  0  0  0  0  0  0  0  0  0
    7.9172    0.7275    0.1165 H   0  0  0  0  0  0  0  0  0  0  0  0
    6.9604    2.2478    0.1165 H   0  0  0  0  0  0  0  0  0  0  0  0
    6.8615   -1.2868   -0.3489 H   0  0  0  0  0  0  0  0  0  0  0  0
    4.8026   -2.6064   -0.7268 H   0  0  0  0  0  0  0  0  0  0  0  0
    1.9442   -1.8490   -1.2577 H   0  0  0  0  0  0  0  0  0  0  0  0
    2.0182   -2.4992    0.3776 H   0  0  0  0  0  0  0  0  0  0  0  0
   -0.3994   -2.5174    0.1365 H   0  0  0  0  0  0  0  0  0  0  0  0
   -1.2615   -0.4700   -1.8648 H   0  0  0  0  0  0  0  0  0  0  0  0
   -0.6644   -2.0875   -2.1589 H   0  0  0  0  0  0  0  0  0  0  0  0
   -3.3691   -1.3980   -2.2336 H   0  0  0  0  0  0  0  0  0  0  0  0
   -2.8620   -3.0336   -1.8763 H   0  0  0  0  0  0  0  0  0  0  0  0
   -3.8441   -2.6318    0.1877 H   0  0  0  0  0  0  0  0  0  0  0  0
    0.0396    3.7702    1.8653 H   0  0  0  0  0  0  0  0  0  0  0  0
   -1.5820    3.0489    1.6845 H   0  0  0  0  0  0  0  0  0  0  0  0
    4.5120    2.0243    0.9906 H   0  0  0  0  0  0  0  0  0  0  0  0
  1  2  1  0
  2  3  2  0
  3  4  1  0
  4  5  2  0
  5  6  1  0
  6  7  1  0
  7  8  2  0
  8  9  1  0
  9 10  1  0
 10 11  1  0
 11 12  1  0
 12 13  1  0
 12 14  1  0
  8 15  1  0
 15 16  2  0
 16 17  1  0
 16 18  1  0
 18 19  2  0
 19 20  1  0
 20 21  2  0
 21  2  1  0
 20  5  1  0
 19  7  1  0
 14  9  1  0
  1 22  1  0
  1 23  1  0
  1 24  1  0
  3 25  1  0
  4 26  1  0
  6 27  1  0
  6 28  1  0
  9 29  1  0
 10 30  1  0
 10 31  1  0
 11 32  1  0
 11 33  1  0
 12 34  1  0
 17 35  1  0
 17 36  1  0
 21 37  1  0
M  END
>  <Original_Name>  (83) 
CHEMBL178435

>  <ROSHAMBO_ComboTanimoto>  (83) 
0.786

>  <ROSHAMBO_ShapeTanimoto>  (83) 
0.634

>  <ROSHAMBO_ColorTanimoto>  (83) 
0.152

>  <ROSHAMBO_FitTverskyCombo>  (83) 
1.195

>  <ROSHAMBO_FitTversky>  (83) 
0.855

>  <ROSHAMBO_FitColorTversky>  (83) 
0.34

>  <ROSHAMBO_RefTverskyCombo>  (83) 
0.926

>  <ROSHAMBO_RefTversky>  (83) 
0.71

>  <ROSHAMBO_RefColorTversky>  (83) 
0.216

>  <ROSHAMBO_Overlap>  (83) 
865.305

$$$$
CHEMBL17859_0_55
     RDKit          3D

 32 34  0  0  0  0  0  0  0  0999 V2000
    4.2818    1.4354    1.8076 N   0  0  0  0  0  0  0  0  0  0  0  0
    3.5350    0.5065    1.0358 C   0  0  0  0  0  0  0  0  0  0  0  0
    2.1951    0.7418    0.8146 C   0  0  0  0  0  0  0  0  0  0  0  0
    1.3506    1.7226    1.1846 N   0  0  0  0  0  0  0  0  0  0  0  0
    0.1325    1.4526    0.6875 C   0  0  0  0  0  0  0  0  0  0  0  0
    0.1509    0.3108   -0.0062 N   0  0  0  0  0  0  0  0  0  0  0  0
   -0.8974   -0.3748   -0.7116 C   0  0  0  0  0  0  0  0  0  0  0  0
   -2.3093    0.7540   -1.0367 S   0  0  0  0  0  0  0  0  0  0  0  0
   -3.5856   -0.5310   -0.9172 C   0  0  0  0  0  0  0  0  0  0  0  0
   -4.7709   -0.0781   -0.1072 C   0  0  0  0  0  0  0  0  0  0  0  0
   -5.3379    1.0394   -0.7014 O   0  0  0  0  0  0  0  0  0  0  0  0
   -2.9027   -1.7292   -0.3865 C   0  0  0  0  0  0  0  0  0  0  0  0
   -3.6626   -2.2390    0.6798 O   0  0  0  0  0  0  0  0  0  0  0  0
   -1.5507   -1.4117    0.1171 C   0  0  0  0  0  0  0  0  0  0  0  0
   -0.7702   -2.5759    0.0508 O   0  0  0  0  0  0  0  0  0  0  0  0
    1.4202   -0.1434    0.0618 C   0  0  0  0  0  0  0  0  0  0  0  0
    2.0565   -1.2309   -0.4302 N   0  0  0  0  0  0  0  0  0  0  0  0
    3.3608   -1.4854   -0.2305 C   0  0  0  0  0  0  0  0  0  0  0  0
    4.1266   -2.9286   -0.9049 Cl  0  0  0  0  0  0  0  0  0  0  0  0
    4.0643   -0.6055    0.4997 N   0  0  0  0  0  0  0  0  0  0  0  0
    5.2840    1.2728    1.9812 H   0  0  0  0  0  0  0  0  0  0  0  0
    3.8214    2.2719    2.1939 H   0  0  0  0  0  0  0  0  0  0  0  0
   -0.7568    2.0839    0.8314 H   0  0  0  0  0  0  0  0  0  0  0  0
   -0.4034   -0.7759   -1.6089 H   0  0  0  0  0  0  0  0  0  0  0  0
   -4.0304   -0.7639   -1.8959 H   0  0  0  0  0  0  0  0  0  0  0  0
   -5.5150   -0.8870   -0.0627 H   0  0  0  0  0  0  0  0  0  0  0  0
   -4.4430    0.1753    0.9118 H   0  0  0  0  0  0  0  0  0  0  0  0
   -5.6538    1.6619    0.0005 H   0  0  0  0  0  0  0  0  0  0  0  0
   -2.8060   -2.4599   -1.2030 H   0  0  0  0  0  0  0  0  0  0  0  0
   -3.2528   -1.9641    1.5381 H   0  0  0  0  0  0  0  0  0  0  0  0
   -1.6404   -1.0381    1.1479 H   0  0  0  0  0  0  0  0  0  0  0  0
   -0.5621   -2.8864    0.9675 H   0  0  0  0  0  0  0  0  0  0  0  0
  1  2  1  0
  2  3  2  0
  3  4  1  0
  4  5  2  0
  5  6  1  0
  6  7  1  0
  7  8  1  0
  8  9  1  0
  9 10  1  0
 10 11  1  0
  9 12  1  0
 12 13  1  0
 12 14  1  0
 14 15  1  0
  6 16  1  0
 16 17  2  0
 17 18  1  0
 18 19  1  0
 18 20  2  0
 20  2  1  0
 16  3  1  0
 14  7  1  0
  1 21  1  0
  1 22  1  0
  5 23  1  0
  7 24  1  0
  9 25  1  0
 10 26  1  0
 10 27  1  0
 11 28  1  0
 12 29  1  0
 13 30  1  0
 14 31  1  0
 15 32  1  0
M  END
>  <Original_Name>  (84) 
CHEMBL17859

>  <ROSHAMBO_ComboTanimoto>  (84) 
0.782

>  <ROSHAMBO_ShapeTanimoto>  (84) 
0.562

>  <ROSHAMBO_ColorTanimoto>  (84) 
0.22

>  <ROSHAMBO_FitTverskyCombo>  (84) 
1.187

>  <ROSHAMBO_FitTversky>  (84) 
0.824

>  <ROSHAMBO_FitColorTversky>  (84) 
0.363

>  <ROSHAMBO_RefTverskyCombo>  (84) 
0.997

>  <ROSHAMBO_RefTversky>  (84) 
0.639

>  <ROSHAMBO_RefColorTversky>  (84) 
0.358

>  <ROSHAMBO_Overlap>  (84) 
776.79

$$$$
CHEMBL17859_0_66
     RDKit          3D

 32 34  0  0  0  0  0  0  0  0999 V2000
    4.0407    2.2673   -0.1288 N   0  0  0  0  0  0  0  0  0  0  0  0
    3.3006    1.0750    0.0049 C   0  0  0  0  0  0  0  0  0  0  0  0
    1.9618    1.1451    0.3209 C   0  0  0  0  0  0  0  0  0  0  0  0
    1.1362    2.1801    0.5489 N   0  0  0  0  0  0  0  0  0  0  0  0
   -0.1017    1.6865    0.8224 C   0  0  0  0  0  0  0  0  0  0  0  0
   -0.0294    0.3506    0.7610 N   0  0  0  0  0  0  0  0  0  0  0  0
   -1.0768   -0.6110    0.9743 C   0  0  0  0  0  0  0  0  0  0  0  0
   -2.7200    0.1486    0.9568 S   0  0  0  0  0  0  0  0  0  0  0  0
   -3.5135   -1.1380   -0.0521 C   0  0  0  0  0  0  0  0  0  0  0  0
   -4.5763   -0.5578   -0.9547 C   0  0  0  0  0  0  0  0  0  0  0  0
   -5.5563    0.0627   -0.1668 O   0  0  0  0  0  0  0  0  0  0  0  0
   -2.3620   -1.6795   -0.8148 C   0  0  0  0  0  0  0  0  0  0  0  0
   -2.1987   -0.9687   -2.0170 O   0  0  0  0  0  0  0  0  0  0  0  0
   -1.1253   -1.6696   -0.0432 C   0  0  0  0  0  0  0  0  0  0  0  0
   -0.8407   -2.9090    0.5761 O   0  0  0  0  0  0  0  0  0  0  0  0
    1.2321   -0.0009    0.4537 C   0  0  0  0  0  0  0  0  0  0  0  0
    1.8747   -1.1916    0.2634 N   0  0  0  0  0  0  0  0  0  0  0  0
    3.1683   -1.2578   -0.0419 C   0  0  0  0  0  0  0  0  0  0  0  0
    3.9507   -2.8024   -0.2767 Cl  0  0  0  0  0  0  0  0  0  0  0  0
    3.8934   -0.1379   -0.1745 N   0  0  0  0  0  0  0  0  0  0  0  0
    5.0425    2.2278   -0.3648 H   0  0  0  0  0  0  0  0  0  0  0  0
    3.5796    3.1779    0.0096 H   0  0  0  0  0  0  0  0  0  0  0  0
   -1.0001    2.2780    1.0527 H   0  0  0  0  0  0  0  0  0  0  0  0
   -0.8313   -1.0366    1.9585 H   0  0  0  0  0  0  0  0  0  0  0  0
   -4.0480   -1.9015    0.5322 H   0  0  0  0  0  0  0  0  0  0  0  0
   -4.1225    0.1829   -1.6297 H   0  0  0  0  0  0  0  0  0  0  0  0
   -5.0336   -1.3595   -1.5531 H   0  0  0  0  0  0  0  0  0  0  0  0
   -5.3438   -0.0718    0.7907 H   0  0  0  0  0  0  0  0  0  0  0  0
   -2.5879   -2.7321   -1.0409 H   0  0  0  0  0  0  0  0  0  0  0  0
   -1.9817   -0.0241   -1.8150 H   0  0  0  0  0  0  0  0  0  0  0  0
   -0.3528   -1.4652   -0.7992 H   0  0  0  0  0  0  0  0  0  0  0  0
   -0.8658   -2.7999    1.5597 H   0  0  0  0  0  0  0  0  0  0  0  0
  1  2  1  0
  2  3  2  0
  3  4  1  0
  4  5  2  0
  5  6  1  0
  6  7  1  0
  7  8  1  0
  8  9  1  0
  9 10  1  0
 10 11  1  0
  9 12  1  0
 12 13  1  0
 12 14  1  0
 14 15  1  0
  6 16  1  0
 16 17  2  0
 17 18  1  0
 18 19  1  0
 18 20  2  0
 20  2  1  0
 16  3  1  0
 14  7  1  0
  1 21  1  0
  1 22  1  0
  5 23  1  0
  7 24  1  0
  9 25  1  0
 10 26  1  0
 10 27  1  0
 11 28  1  0
 12 29  1  0
 13 30  1  0
 14 31  1  0
 15 32  1  0
M  END
>  <Original_Name>  (85) 
CHEMBL17859

>  <ROSHAMBO_ComboTanimoto>  (85) 
0.781

>  <ROSHAMBO_ShapeTanimoto>  (85) 
0.58

>  <ROSHAMBO_ColorTanimoto>  (85) 
0.201

>  <ROSHAMBO_FitTverskyCombo>  (85) 
1.177

>  <ROSHAMBO_FitTversky>  (85) 
0.839

>  <ROSHAMBO_FitColorTversky>  (85) 
0.338

>  <ROSHAMBO_RefTverskyCombo>  (85) 
0.985

>  <ROSHAMBO_RefTversky>  (85) 
0.652

>  <ROSHAMBO_RefColorTversky>  (85) 
0.332

>  <ROSHAMBO_Overlap>  (85) 
792.552

$$$$
CHEMBL17859_0_96
     RDKit          3D

 32 34  0  0  0  0  0  0  0  0999 V2000
    4.3055    1.6758    1.4669 N   0  0  0  0  0  0  0  0  0  0  0  0
    3.4541    0.7119    0.8785 C   0  0  0  0  0  0  0  0  0  0  0  0
    2.1154    0.9729    0.6438 C   0  0  0  0  0  0  0  0  0  0  0  0
    1.3385    2.0525    0.8682 N   0  0  0  0  0  0  0  0  0  0  0  0
    0.0951    1.7431    0.4358 C   0  0  0  0  0  0  0  0  0  0  0  0
    0.0798    0.5079   -0.0480 N   0  0  0  0  0  0  0  0  0  0  0  0
   -1.0673   -0.1824   -0.6043 C   0  0  0  0  0  0  0  0  0  0  0  0
   -2.5759    0.8139   -0.2871 S   0  0  0  0  0  0  0  0  0  0  0  0
   -3.6562   -0.5738    0.2403 C   0  0  0  0  0  0  0  0  0  0  0  0
   -4.8281   -0.6207   -0.7162 C   0  0  0  0  0  0  0  0  0  0  0  0
   -5.5596    0.5852   -0.6923 O   0  0  0  0  0  0  0  0  0  0  0  0
   -2.7986   -1.7723    0.0034 C   0  0  0  0  0  0  0  0  0  0  0  0
   -2.9813   -2.3172   -1.2459 O   0  0  0  0  0  0  0  0  0  0  0  0
   -1.3670   -1.3953    0.2212 C   0  0  0  0  0  0  0  0  0  0  0  0
   -0.5743   -2.4802   -0.0984 O   0  0  0  0  0  0  0  0  0  0  0  0
    1.3197   -0.0010    0.0656 C   0  0  0  0  0  0  0  0  0  0  0  0
    1.8793   -1.1869   -0.2547 N   0  0  0  0  0  0  0  0  0  0  0  0
    3.1784   -1.4542   -0.0324 C   0  0  0  0  0  0  0  0  0  0  0  0
    3.9221   -2.9871   -0.4414 Cl  0  0  0  0  0  0  0  0  0  0  0  0
    3.9339   -0.4953    0.5299 N   0  0  0  0  0  0  0  0  0  0  0  0
    5.2982    1.4549    1.6303 H   0  0  0  0  0  0  0  0  0  0  0  0
    3.9329    2.5988    1.7319 H   0  0  0  0  0  0  0  0  0  0  0  0
   -0.7743    2.4156    0.4788 H   0  0  0  0  0  0  0  0  0  0  0  0
   -0.8467   -0.3822   -1.6632 H   0  0  0  0  0  0  0  0  0  0  0  0
   -4.0284   -0.4990    1.2728 H   0  0  0  0  0  0  0  0  0  0  0  0
   -4.4516   -0.7910   -1.7356 H   0  0  0  0  0  0  0  0  0  0  0  0
   -5.4963   -1.4375   -0.4057 H   0  0  0  0  0  0  0  0  0  0  0  0
   -5.7225    0.8538    0.2465 H   0  0  0  0  0  0  0  0  0  0  0  0
   -3.0941   -2.5532    0.7196 H   0  0  0  0  0  0  0  0  0  0  0  0
   -3.2947   -3.2519   -1.1556 H   0  0  0  0  0  0  0  0  0  0  0  0
   -1.1606   -1.1380    1.2705 H   0  0  0  0  0  0  0  0  0  0  0  0
   -0.2575   -2.9138    0.7333 H   0  0  0  0  0  0  0  0  0  0  0  0
  1  2  1  0
  2  3  2  0
  3  4  1  0
  4  5  2  0
  5  6  1  0
  6  7  1  0
  7  8  1  0
  8  9  1  0
  9 10  1  0
 10 11  1  0
  9 12  1  0
 12 13  1  0
 12 14  1  0
 14 15  1  0
  6 16  1  0
 16 17  2  0
 17 18  1  0
 18 19  1  0
 18 20  2  0
 20  2  1  0
 16  3  1  0
 14  7  1  0
  1 21  1  0
  1 22  1  0
  5 23  1  0
  7 24  1  0
  9 25  1  0
 10 26  1  0
 10 27  1  0
 11 28  1  0
 12 29  1  0
 13 30  1  0
 14 31  1  0
 15 32  1  0
M  END
>  <Original_Name>  (86) 
CHEMBL17859

>  <ROSHAMBO_ComboTanimoto>  (86) 
0.78

>  <ROSHAMBO_ShapeTanimoto>  (86) 
0.565

>  <ROSHAMBO_ColorTanimoto>  (86) 
0.215

>  <ROSHAMBO_FitTverskyCombo>  (86) 
1.18

>  <ROSHAMBO_FitTversky>  (86) 
0.825

>  <ROSHAMBO_FitColorTversky>  (86) 
0.355

>  <ROSHAMBO_RefTverskyCombo>  (86) 
0.994

>  <ROSHAMBO_RefTversky>  (86) 
0.642

>  <ROSHAMBO_RefColorTversky>  (86) 
0.352

>  <ROSHAMBO_Overlap>  (86) 
780.371

$$$$
CHEMBL17859_0_87
     RDKit          3D

 32 34  0  0  0  0  0  0  0  0999 V2000
    4.1870    1.6856    1.1110 N   0  0  0  0  0  0  0  0  0  0  0  0
    3.4978    0.5943    0.5441 C   0  0  0  0  0  0  0  0  0  0  0  0
    2.1186    0.6256    0.3923 C   0  0  0  0  0  0  0  0  0  0  0  0
    1.1716    1.5495    0.6884 N   0  0  0  0  0  0  0  0  0  0  0  0
   -0.0292    1.0615    0.3277 C   0  0  0  0  0  0  0  0  0  0  0  0
    0.1460   -0.1673   -0.1964 N   0  0  0  0  0  0  0  0  0  0  0  0
   -0.9306   -0.9796   -0.6861 C   0  0  0  0  0  0  0  0  0  0  0  0
   -2.1252    0.1626   -1.4883 S   0  0  0  0  0  0  0  0  0  0  0  0
   -3.5818   -0.2410   -0.4443 C   0  0  0  0  0  0  0  0  0  0  0  0
   -4.8381   -0.2669   -1.2726 C   0  0  0  0  0  0  0  0  0  0  0  0
   -4.9769    1.0181   -1.8315 O   0  0  0  0  0  0  0  0  0  0  0  0
   -3.1647   -1.6420   -0.0074 C   0  0  0  0  0  0  0  0  0  0  0  0
   -3.9317   -2.1074    1.0372 O   0  0  0  0  0  0  0  0  0  0  0  0
   -1.7555   -1.4326    0.5157 C   0  0  0  0  0  0  0  0  0  0  0  0
   -1.2456   -2.5620    1.1070 O   0  0  0  0  0  0  0  0  0  0  0  0
    1.4612   -0.4297   -0.1548 C   0  0  0  0  0  0  0  0  0  0  0  0
    2.1193   -1.5164   -0.5579 N   0  0  0  0  0  0  0  0  0  0  0  0
    3.4684   -1.5440   -0.4081 C   0  0  0  0  0  0  0  0  0  0  0  0
    4.3473   -2.9740   -0.9370 Cl  0  0  0  0  0  0  0  0  0  0  0  0
    4.1408   -0.5072    0.1326 N   0  0  0  0  0  0  0  0  0  0  0  0
    5.2108    1.6488    1.2177 H   0  0  0  0  0  0  0  0  0  0  0  0
    3.6668    2.5197    1.4186 H   0  0  0  0  0  0  0  0  0  0  0  0
   -0.9930    1.5792    0.4416 H   0  0  0  0  0  0  0  0  0  0  0  0
   -0.5307   -1.7890   -1.3146 H   0  0  0  0  0  0  0  0  0  0  0  0
   -3.8089    0.4608    0.3718 H   0  0  0  0  0  0  0  0  0  0  0  0
   -4.7520   -1.0203   -2.0695 H   0  0  0  0  0  0  0  0  0  0  0  0
   -5.7127   -0.5299   -0.6595 H   0  0  0  0  0  0  0  0  0  0  0  0
   -5.0492    1.6875   -1.1058 H   0  0  0  0  0  0  0  0  0  0  0  0
   -3.2636   -2.3653   -0.8302 H   0  0  0  0  0  0  0  0  0  0  0  0
   -3.5101   -1.8516    1.8957 H   0  0  0  0  0  0  0  0  0  0  0  0
   -1.7364   -0.6766    1.3144 H   0  0  0  0  0  0  0  0  0  0  0  0
   -1.2885   -2.4670    2.0915 H   0  0  0  0  0  0  0  0  0  0  0  0
  1  2  1  0
  2  3  2  0
  3  4  1  0
  4  5  2  0
  5  6  1  0
  6  7  1  0
  7  8  1  0
  8  9  1  0
  9 10  1  0
 10 11  1  0
  9 12  1  0
 12 13  1  0
 12 14  1  0
 14 15  1  0
  6 16  1  0
 16 17  2  0
 17 18  1  0
 18 19  1  0
 18 20  2  0
 20  2  1  0
 16  3  1  0
 14  7  1  0
  1 21  1  0
  1 22  1  0
  5 23  1  0
  7 24  1  0
  9 25  1  0
 10 26  1  0
 10 27  1  0
 11 28  1  0
 12 29  1  0
 13 30  1  0
 14 31  1  0
 15 32  1  0
M  END
>  <Original_Name>  (87) 
CHEMBL17859

>  <ROSHAMBO_ComboTanimoto>  (87) 
0.779

>  <ROSHAMBO_ShapeTanimoto>  (87) 
0.556

>  <ROSHAMBO_ColorTanimoto>  (87) 
0.222

>  <ROSHAMBO_FitTverskyCombo>  (87) 
1.185

>  <ROSHAMBO_FitTversky>  (87) 
0.819

>  <ROSHAMBO_FitColorTversky>  (87) 
0.366

>  <ROSHAMBO_RefTverskyCombo>  (87) 
0.996

>  <ROSHAMBO_RefTversky>  (87) 
0.634

>  <ROSHAMBO_RefColorTversky>  (87) 
0.362

>  <ROSHAMBO_Overlap>  (87) 
770.969

$$$$
CHEMBL259736_0_34
     RDKit          3D

 33 35  0  0  0  0  0  0  0  0999 V2000
   -1.4661    1.9335    0.2725 N   0  0  0  0  0  0  0  0  0  0  0  0
   -1.5677    0.7726    0.1046 C   0  0  0  0  0  0  0  0  0  0  0  0
   -1.7145   -0.6394   -0.1093 C   0  0  0  0  0  0  0  0  0  0  0  0
   -2.9502   -1.2264   -0.2742 C   0  0  0  0  0  0  0  0  0  0  0  0
   -4.1488   -0.4004   -0.2277 C   0  0  0  0  0  0  0  0  0  0  0  0
   -5.2297   -0.8478    0.5407 C   0  0  0  0  0  0  0  0  0  0  0  0
   -6.4043   -0.1536    0.6512 C   0  0  0  0  0  0  0  0  0  0  0  0
   -6.5048    1.0446   -0.0384 C   0  0  0  0  0  0  0  0  0  0  0  0
   -5.4753    1.5368   -0.8109 C   0  0  0  0  0  0  0  0  0  0  0  0
   -4.2970    0.7887   -0.8901 C   0  0  0  0  0  0  0  0  0  0  0  0
   -3.0023   -2.5646   -0.4721 N   0  0  0  0  0  0  0  0  0  0  0  0
   -1.9213   -3.3401   -0.5154 C   0  0  0  0  0  0  0  0  0  0  0  0
   -1.9686   -4.7568   -0.7247 N   0  0  0  0  0  0  0  0  0  0  0  0
   -0.7161   -2.7671   -0.3545 N   0  0  0  0  0  0  0  0  0  0  0  0
   -0.5668   -1.4248   -0.1495 C   0  0  0  0  0  0  0  0  0  0  0  0
    0.7624   -0.8449    0.0162 C   0  0  0  0  0  0  0  0  0  0  0  0
    1.8014   -1.1921   -0.8544 C   0  0  0  0  0  0  0  0  0  0  0  0
    3.0605   -0.6739   -0.7275 C   0  0  0  0  0  0  0  0  0  0  0  0
    3.3664    0.2148    0.2635 C   0  0  0  0  0  0  0  0  0  0  0  0
    2.3696    0.5812    1.1409 C   0  0  0  0  0  0  0  0  0  0  0  0
    1.0837    0.0528    1.0124 C   0  0  0  0  0  0  0  0  0  0  0  0
   -5.1307   -1.8011    1.0807 H   0  0  0  0  0  0  0  0  0  0  0  0
   -7.2362   -0.5320    1.2634 H   0  0  0  0  0  0  0  0  0  0  0  0
   -7.4381    1.6223    0.0335 H   0  0  0  0  0  0  0  0  0  0  0  0
   -5.5776    2.4904   -1.3495 H   0  0  0  0  0  0  0  0  0  0  0  0
   -3.4648    1.1664   -1.5023 H   0  0  0  0  0  0  0  0  0  0  0  0
   -1.0960   -5.3034   -0.7481 H   0  0  0  0  0  0  0  0  0  0  0  0
   -2.8754   -5.2286   -0.8518 H   0  0  0  0  0  0  0  0  0  0  0  0
    1.5988   -1.9051   -1.6672 H   0  0  0  0  0  0  0  0  0  0  0  0
    3.8429   -0.9790   -1.4381 H   0  0  0  0  0  0  0  0  0  0  0  0
    4.3818    0.6270    0.3586 H   0  0  0  0  0  0  0  0  0  0  0  0
    2.5884    1.2953    1.9484 H   0  0  0  0  0  0  0  0  0  0  0  0
    0.3051    0.3611    1.7258 H   0  0  0  0  0  0  0  0  0  0  0  0
  1  2  3  0
  2  3  1  0
  3  4  2  0
  4  5  1  0
  5  6  2  0
  6  7  1  0
  7  8  2  0
  8  9  1  0
  9 10  2  0
  4 11  1  0
 11 12  2  0
 12 13  1  0
 12 14  1  0
 14 15  2  0
 15 16  1  0
 16 17  2  0
 17 18  1  0
 18 19  2  0
 19 20  1  0
 20 21  2  0
 15  3  1  0
 21 16  1  0
 10  5  1  0
  6 22  1  0
  7 23  1  0
  8 24  1  0
  9 25  1  0
 10 26  1  0
 13 27  1  0
 13 28  1  0
 17 29  1  0
 18 30  1  0
 19 31  1  0
 20 32  1  0
 21 33  1  0
M  END
>  <Original_Name>  (88) 
CHEMBL259736

>  <ROSHAMBO_ComboTanimoto>  (88) 
0.778

>  <ROSHAMBO_ShapeTanimoto>  (88) 
0.577

>  <ROSHAMBO_ColorTanimoto>  (88) 
0.201

>  <ROSHAMBO_FitTverskyCombo>  (88) 
1.239

>  <ROSHAMBO_FitTversky>  (88) 
0.807

>  <ROSHAMBO_FitColorTversky>  (88) 
0.432

>  <ROSHAMBO_RefTverskyCombo>  (88) 
0.943

>  <ROSHAMBO_RefTversky>  (88) 
0.67

>  <ROSHAMBO_RefColorTversky>  (88) 
0.273

>  <ROSHAMBO_Overlap>  (88) 
816.296

$$$$
CHEMBL178435_0_87
     RDKit          3D

 37 40  0  0  0  0  0  0  0  0999 V2000
    5.9792    0.5376    0.1814 C   0  0  0  0  0  0  0  0  0  0  0  0
    4.6601   -0.0772    0.0164 C   0  0  0  0  0  0  0  0  0  0  0  0
    4.5331   -1.3919   -0.3772 C   0  0  0  0  0  0  0  0  0  0  0  0
    3.2903   -1.9506   -0.5265 C   0  0  0  0  0  0  0  0  0  0  0  0
    2.1417   -1.1972   -0.2825 C   0  0  0  0  0  0  0  0  0  0  0  0
    0.7023   -1.4972   -0.3510 C   0  0  0  0  0  0  0  0  0  0  0  0
    0.0320   -0.2254    0.0417 C   0  0  0  0  0  0  0  0  0  0  0  0
   -1.3079    0.1189    0.1655 C   0  0  0  0  0  0  0  0  0  0  0  0
   -2.3405   -0.9022   -0.1261 C   0  0  0  0  0  0  0  0  0  0  0  0
   -2.6500   -1.6394    1.1470 C   0  0  0  0  0  0  0  0  0  0  0  0
   -4.1330   -1.8226    1.0688 C   0  0  0  0  0  0  0  0  0  0  0  0
   -4.5688   -1.0337   -0.1304 C   0  0  0  0  0  0  0  0  0  0  0  0
   -6.0224    0.1536    0.3357 Br  0  0  0  0  0  0  0  0  0  0  0  0
   -3.4933   -0.2556   -0.5308 O   0  0  0  0  0  0  0  0  0  0  0  0
   -1.6342    1.3602    0.5438 N   0  0  0  0  0  0  0  0  0  0  0  0
   -0.7265    2.3245    0.8201 C   0  0  0  0  0  0  0  0  0  0  0  0
   -1.1366    3.6171    1.2151 N   0  0  0  0  0  0  0  0  0  0  0  0
    0.5628    1.9704    0.6942 N   0  0  0  0  0  0  0  0  0  0  0  0
    0.9638    0.7342    0.3163 C   0  0  0  0  0  0  0  0  0  0  0  0
    2.2651    0.1153    0.1104 C   0  0  0  0  0  0  0  0  0  0  0  0
    3.5150    0.6779    0.2608 C   0  0  0  0  0  0  0  0  0  0  0  0
    6.2035    0.6422    1.2532 H   0  0  0  0  0  0  0  0  0  0  0  0
    6.7419   -0.0978   -0.2925 H   0  0  0  0  0  0  0  0  0  0  0  0
    5.9830    1.5303   -0.2925 H   0  0  0  0  0  0  0  0  0  0  0  0
    5.4321   -1.9950   -0.5722 H   0  0  0  0  0  0  0  0  0  0  0  0
    3.1980   -3.0006   -0.8409 H   0  0  0  0  0  0  0  0  0  0  0  0
    0.4148   -1.7881   -1.3721 H   0  0  0  0  0  0  0  0  0  0  0  0
    0.4202   -2.3356    0.3029 H   0  0  0  0  0  0  0  0  0  0  0  0
   -1.9852   -1.5934   -0.9046 H   0  0  0  0  0  0  0  0  0  0  0  0
   -2.1317   -2.6091    1.1799 H   0  0  0  0  0  0  0  0  0  0  0  0
   -2.3233   -1.1051    2.0513 H   0  0  0  0  0  0  0  0  0  0  0  0
   -4.3832   -2.8862    0.9416 H   0  0  0  0  0  0  0  0  0  0  0  0
   -4.6362   -1.4839    1.9864 H   0  0  0  0  0  0  0  0  0  0  0  0
   -4.9008   -1.7192   -0.9241 H   0  0  0  0  0  0  0  0  0  0  0  0
   -0.4326    4.3400    1.4220 H   0  0  0  0  0  0  0  0  0  0  0  0
   -2.1396    3.8367    1.2964 H   0  0  0  0  0  0  0  0  0  0  0  0
    3.6085    1.7278    0.5752 H   0  0  0  0  0  0  0  0  0  0  0  0
  1  2  1  0
  2  3  2  0
  3  4  1  0
  4  5  2  0
  5  6  1  0
  6  7  1  0
  7  8  2  0
  8  9  1  0
  9 10  1  0
 10 11  1  0
 11 12  1  0
 12 13  1  0
 12 14  1  0
  8 15  1  0
 15 16  2  0
 16 17  1  0
 16 18  1  0
 18 19  2  0
 19 20  1  0
 20 21  2  0
 21  2  1  0
 20  5  1  0
 19  7  1  0
 14  9  1  0
  1 22  1  0
  1 23  1  0
  1 24  1  0
  3 25  1  0
  4 26  1  0
  6 27  1  0
  6 28  1  0
  9 29  1  0
 10 30  1  0
 10 31  1  0
 11 32  1  0
 11 33  1  0
 12 34  1  0
 17 35  1  0
 17 36  1  0
 21 37  1  0
M  END
>  <Original_Name>  (89) 
CHEMBL178435

>  <ROSHAMBO_ComboTanimoto>  (89) 
0.773

>  <ROSHAMBO_ShapeTanimoto>  (89) 
0.607

>  <ROSHAMBO_ColorTanimoto>  (89) 
0.166

>  <ROSHAMBO_FitTverskyCombo>  (89) 
1.198

>  <ROSHAMBO_FitTversky>  (89) 
0.832

>  <ROSHAMBO_FitColorTversky>  (89) 
0.366

>  <ROSHAMBO_RefTverskyCombo>  (89) 
0.925

>  <ROSHAMBO_RefTversky>  (89) 
0.692

>  <ROSHAMBO_RefColorTversky>  (89) 
0.233

>  <ROSHAMBO_Overlap>  (89) 
843.351

$$$$
CHEMBL591999_0_74
     RDKit          3D

 54 56  0  0  0  0  0  0  0  0999 V2000
   -8.2853    1.0700    1.3908 C   0  0  0  0  0  0  0  0  0  0  0  0
   -7.0431    1.4482    0.6224 C   0  0  0  0  0  0  0  0  0  0  0  0
   -7.3256    1.3277   -0.8570 C   0  0  0  0  0  0  0  0  0  0  0  0
   -6.0676    1.7105   -1.6387 C   0  0  0  0  0  0  0  0  0  0  0  0
   -4.9515    0.8235   -1.2893 C   0  0  0  0  0  0  0  0  0  0  0  0
   -4.0393    0.0896   -0.9821 C   0  0  0  0  0  0  0  0  0  0  0  0
   -2.9576   -0.7951   -0.5922 C   0  0  0  0  0  0  0  0  0  0  0  0
   -3.1829   -2.0896   -0.2620 N   0  0  0  0  0  0  0  0  0  0  0  0
   -2.1841   -2.9100    0.0994 C   0  0  0  0  0  0  0  0  0  0  0  0
   -2.4457   -4.2594    0.4400 N   0  0  0  0  0  0  0  0  0  0  0  0
   -0.9078   -2.3959    0.1265 C   0  0  0  0  0  0  0  0  0  0  0  0
    0.2830   -2.9118    0.4284 N   0  0  0  0  0  0  0  0  0  0  0  0
    1.2208   -1.9549    0.2869 C   0  0  0  0  0  0  0  0  0  0  0  0
    0.6384   -0.8101   -0.1090 N   0  0  0  0  0  0  0  0  0  0  0  0
    1.3110    0.4503   -0.3705 C   0  0  2  0  0  0  0  0  0  0  0  0
    2.6919    0.2681   -0.9088 C   0  0  0  0  0  0  0  0  0  0  0  0
    3.6408    0.8805    0.1142 C   0  0  2  0  0  0  0  0  0  0  0  0
    4.9062    0.2267    0.1500 N   0  0  0  0  0  0  0  0  0  0  0  0
    6.0970    0.9540   -0.1196 C   0  0  0  0  0  0  0  0  0  0  0  0
    5.9709    2.1767   -0.3848 O   0  0  0  0  0  0  0  0  0  0  0  0
    7.4499    0.2973   -0.0907 C   0  0  0  0  0  0  0  0  0  0  0  0
    8.4791    1.3507   -0.4201 C   0  0  0  0  0  0  0  0  0  0  0  0
    2.8455    0.7756    1.3903 C   0  0  1  0  0  0  0  0  0  0  0  0
    3.2510    1.7339    2.3321 O   0  0  0  0  0  0  0  0  0  0  0  0
    1.4699    1.1920    0.9156 C   0  0  1  0  0  0  0  0  0  0  0  0
    1.4823    2.5732    0.6320 O   0  0  0  0  0  0  0  0  0  0  0  0
   -0.6842   -1.0573   -0.2162 C   0  0  0  0  0  0  0  0  0  0  0  0
   -1.7283   -0.2797   -0.5717 N   0  0  0  0  0  0  0  0  0  0  0  0
   -8.0819    1.1319    2.4701 H   0  0  0  0  0  0  0  0  0  0  0  0
   -9.1014    1.7603    1.1313 H   0  0  0  0  0  0  0  0  0  0  0  0
   -8.5782    0.0419    1.1313 H   0  0  0  0  0  0  0  0  0  0  0  0
   -6.7627    2.4847    0.8614 H   0  0  0  0  0  0  0  0  0  0  0  0
   -6.2159    0.7781    0.8992 H   0  0  0  0  0  0  0  0  0  0  0  0
   -7.6064    0.2912   -1.0954 H   0  0  0  0  0  0  0  0  0  0  0  0
   -8.1523    1.9990   -1.1327 H   0  0  0  0  0  0  0  0  0  0  0  0
   -6.2721    1.6267   -2.7162 H   0  0  0  0  0  0  0  0  0  0  0  0
   -5.7921    2.7442   -1.3825 H   0  0  0  0  0  0  0  0  0  0  0  0
   -1.6715   -4.8802    0.7159 H   0  0  0  0  0  0  0  0  0  0  0  0
   -3.4101   -4.6200    0.4118 H   0  0  0  0  0  0  0  0  0  0  0  0
    2.2975   -2.0898    0.4676 H   0  0  0  0  0  0  0  0  0  0  0  0
    0.6952    0.9848   -1.1087 H   0  0  0  0  0  0  0  0  0  0  0  0
    2.9113   -0.8021   -1.0373 H   0  0  0  0  0  0  0  0  0  0  0  0
    2.8020    0.7503   -1.8913 H   0  0  0  0  0  0  0  0  0  0  0  0
    3.9329    1.9172   -0.1092 H   0  0  0  0  0  0  0  0  0  0  0  0
    4.9581   -0.7777    0.3724 H   0  0  0  0  0  0  0  0  0  0  0  0
    7.6442   -0.1161    0.9100 H   0  0  0  0  0  0  0  0  0  0  0  0
    7.4941   -0.5254   -0.8195 H   0  0  0  0  0  0  0  0  0  0  0  0
    8.8873    1.7686    0.5119 H   0  0  0  0  0  0  0  0  0  0  0  0
    9.2924    0.8980   -1.0062 H   0  0  0  0  0  0  0  0  0  0  0  0
    8.0076    2.1533   -1.0062 H   0  0  0  0  0  0  0  0  0  0  0  0
    2.9345   -0.2143    1.8617 H   0  0  0  0  0  0  0  0  0  0  0  0
    3.1023    1.3825    3.2455 H   0  0  0  0  0  0  0  0  0  0  0  0
    0.6756    0.9886    1.6489 H   0  0  0  0  0  0  0  0  0  0  0  0
    1.4869    3.0842    1.4799 H   0  0  0  0  0  0  0  0  0  0  0  0
  1  2  1  0
  2  3  1  0
  3  4  1  0
  4  5  1  0
  5  6  3  0
  6  7  1  0
  7  8  2  0
  8  9  1  0
  9 10  1  0
  9 11  2  0
 11 12  1  0
 12 13  2  0
 13 14  1  0
 14 15  1  0
 15 16  1  0
 16 17  1  0
 17 18  1  0
 18 19  1  0
 19 20  2  0
 19 21  1  0
 21 22  1  0
 17 23  1  0
 23 24  1  0
 23 25  1  0
 25 26  1  0
 14 27  1  0
 27 28  2  0
 28  7  1  0
 27 11  1  0
 25 15  1  0
  1 29  1  0
  1 30  1  0
  1 31  1  0
  2 32  1  0
  2 33  1  0
  3 34  1  0
  3 35  1  0
  4 36  1  0
  4 37  1  0
 10 38  1  0
 10 39  1  0
 13 40  1  0
 15 41  1  6
 16 42  1  0
 16 43  1  0
 17 44  1  6
 18 45  1  0
 21 46  1  0
 21 47  1  0
 22 48  1  0
 22 49  1  0
 22 50  1  0
 23 51  1  1
 24 52  1  0
 25 53  1  1
 26 54  1  0
M  END
>  <Original_Name>  (90) 
CHEMBL591999

>  <ROSHAMBO_ComboTanimoto>  (90) 
0.772

>  <ROSHAMBO_ShapeTanimoto>  (90) 
0.673

>  <ROSHAMBO_ColorTanimoto>  (90) 
0.099

>  <ROSHAMBO_FitTverskyCombo>  (90) 
0.939

>  <ROSHAMBO_FitTversky>  (90) 
0.786

>  <ROSHAMBO_FitColorTversky>  (90) 
0.152

>  <ROSHAMBO_RefTverskyCombo>  (90) 
1.044

>  <ROSHAMBO_RefTversky>  (90) 
0.824

>  <ROSHAMBO_RefColorTversky>  (90) 
0.22

>  <ROSHAMBO_Overlap>  (90) 
1016.365

$$$$
CHEMBL608029_0_61
     RDKit          3D

 53 56  0  0  0  0  0  0  0  0999 V2000
   -8.8075    1.4213   -0.7091 C   0  0  0  0  0  0  0  0  0  0  0  0
   -7.9665    0.7938    0.4436 C   0  0  0  0  0  0  0  0  0  0  0  0
   -7.0943    1.9396    0.9311 C   0  0  0  0  0  0  0  0  0  0  0  0
   -6.1512    2.3458   -0.2540 C   0  0  0  0  0  0  0  0  0  0  0  0
   -5.1548    1.3861   -0.3438 C   0  0  0  0  0  0  0  0  0  0  0  0
   -4.1999    0.4797   -0.4082 C   0  0  0  0  0  0  0  0  0  0  0  0
   -3.1962   -0.4688   -0.4821 C   0  0  0  0  0  0  0  0  0  0  0  0
   -3.4634   -1.8980   -0.3848 N   0  0  0  0  0  0  0  0  0  0  0  0
   -2.5270   -2.7534   -0.1113 C   0  0  0  0  0  0  0  0  0  0  0  0
   -2.8833   -4.1705   -0.0724 N   0  0  0  0  0  0  0  0  0  0  0  0
   -1.1755   -2.4989    0.1242 C   0  0  0  0  0  0  0  0  0  0  0  0
   -0.1085   -2.9281    0.3779 N   0  0  0  0  0  0  0  0  0  0  0  0
    0.9895   -2.2826    0.4951 C   0  0  0  0  0  0  0  0  0  0  0  0
    0.4164   -0.8967    0.2201 N   0  0  0  0  0  0  0  0  0  0  0  0
    1.3349    0.1171    0.0534 C   0  0  0  0  0  0  0  0  0  0  0  0
    2.6770   -0.3464   -0.2731 O   0  0  0  0  0  0  0  0  0  0  0  0
    3.3913    0.7679   -0.5370 C   0  0  2  0  0  0  0  0  0  0  0  0
    4.8050    0.7508   -0.2715 C   0  0  0  0  0  0  0  0  0  0  0  0
    5.2967    1.9883   -0.6127 O   0  0  0  0  0  0  0  0  0  0  0  0
    5.7704   -0.0411    0.1787 N   0  0  0  0  0  0  0  0  0  0  0  0
    7.1927    0.3276    0.3067 C   0  0  0  0  0  0  0  0  0  0  0  0
    8.0097   -0.1810   -0.9359 C   0  0  0  0  0  0  0  0  0  0  0  0
    8.2768   -0.6094    0.4505 C   0  0  0  0  0  0  0  0  0  0  0  0
    2.7860    1.8946    0.3009 C   0  0  1  0  0  0  0  0  0  0  0  0
    2.3053    2.9350   -0.4658 O   0  0  0  0  0  0  0  0  0  0  0  0
    1.6148    1.1800    1.0274 C   0  0  1  0  0  0  0  0  0  0  0  0
    0.6206    2.1217    1.1979 O   0  0  0  0  0  0  0  0  0  0  0  0
   -0.8797   -0.9922    0.0066 C   0  0  0  0  0  0  0  0  0  0  0  0
   -1.8798   -0.3835   -0.2526 N   0  0  0  0  0  0  0  0  0  0  0  0
   -9.6200    2.0276   -0.2822 H   0  0  0  0  0  0  0  0  0  0  0  0
   -8.1608    2.0594   -1.3294 H   0  0  0  0  0  0  0  0  0  0  0  0
   -9.2351    0.6198   -1.3294 H   0  0  0  0  0  0  0  0  0  0  0  0
   -8.6198    0.4296    1.2502 H   0  0  0  0  0  0  0  0  0  0  0  0
   -7.3777   -0.0744    0.1128 H   0  0  0  0  0  0  0  0  0  0  0  0
   -7.7232    2.7941    1.2214 H   0  0  0  0  0  0  0  0  0  0  0  0
   -6.5062    1.6346    1.8093 H   0  0  0  0  0  0  0  0  0  0  0  0
   -6.7230    2.3821   -1.1930 H   0  0  0  0  0  0  0  0  0  0  0  0
   -5.7154    3.3403   -0.0778 H   0  0  0  0  0  0  0  0  0  0  0  0
   -2.1646   -4.8766    0.1416 H   0  0  0  0  0  0  0  0  0  0  0  0
   -3.8531   -4.4630   -0.2590 H   0  0  0  0  0  0  0  0  0  0  0  0
    2.0126   -2.6176    0.7207 H   0  0  0  0  0  0  0  0  0  0  0  0
    0.7133    0.5778   -0.7285 H   0  0  0  0  0  0  0  0  0  0  0  0
    3.3237    0.8863   -1.6285 H   0  0  0  0  0  0  0  0  0  0  0  0
    5.5036   -0.9945    0.4628 H   0  0  0  0  0  0  0  0  0  0  0  0
    6.9640    1.2358    0.8835 H   0  0  0  0  0  0  0  0  0  0  0  0
    7.5557   -0.8748   -1.6588 H   0  0  0  0  0  0  0  0  0  0  0  0
    8.5839    0.2754   -1.7557 H   0  0  0  0  0  0  0  0  0  0  0  0
    8.0527   -1.6460    0.7426 H   0  0  0  0  0  0  0  0  0  0  0  0
    9.1862   -0.6084    1.0693 H   0  0  0  0  0  0  0  0  0  0  0  0
    3.5274    2.3587    0.9679 H   0  0  0  0  0  0  0  0  0  0  0  0
    1.9726    3.6551    0.1265 H   0  0  0  0  0  0  0  0  0  0  0  0
    1.7711    0.7620    2.0328 H   0  0  0  0  0  0  0  0  0  0  0  0
    0.4666    2.2675    2.1649 H   0  0  0  0  0  0  0  0  0  0  0  0
  1  2  1  0
  2  3  1  0
  3  4  1  0
  4  5  1  0
  5  6  3  0
  6  7  1  0
  7  8  2  0
  8  9  1  0
  9 10  1  0
  9 11  2  0
 11 12  1  0
 12 13  2  0
 13 14  1  0
 14 15  1  0
 15 16  1  0
 16 17  1  0
 17 18  1  0
 18 19  2  0
 18 20  1  0
 20 21  1  0
 21 22  1  0
 22 23  1  0
 17 24  1  0
 24 25  1  0
 24 26  1  0
 26 27  1  0
 14 28  1  0
 28 29  2  0
 29  7  1  0
 28 11  1  0
 26 15  1  0
 23 21  1  0
  1 30  1  0
  1 31  1  0
  1 32  1  0
  2 33  1  0
  2 34  1  0
  3 35  1  0
  3 36  1  0
  4 37  1  0
  4 38  1  0
 10 39  1  0
 10 40  1  0
 13 41  1  0
 15 42  1  0
 17 43  1  6
 20 44  1  0
 21 45  1  0
 22 46  1  0
 22 47  1  0
 23 48  1  0
 23 49  1  0
 24 50  1  1
 25 51  1  0
 26 52  1  1
 27 53  1  0
M  END
>  <Original_Name>  (91) 
CHEMBL608029

>  <ROSHAMBO_ComboTanimoto>  (91) 
0.771

>  <ROSHAMBO_ShapeTanimoto>  (91) 
0.659

>  <ROSHAMBO_ColorTanimoto>  (91) 
0.111

>  <ROSHAMBO_FitTverskyCombo>  (91) 
0.935

>  <ROSHAMBO_FitTversky>  (91) 
0.76

>  <ROSHAMBO_FitColorTversky>  (91) 
0.175

>  <ROSHAMBO_RefTverskyCombo>  (91) 
1.067

>  <ROSHAMBO_RefTversky>  (91) 
0.833

>  <ROSHAMBO_RefColorTversky>  (91) 
0.235

>  <ROSHAMBO_Overlap>  (91) 
1030.405

$$$$
CHEMBL260719_0_35
     RDKit          3D

 26 29  0  0  0  0  0  0  0  0999 V2000
    7.2297    0.4834   -0.4087 C   0  0  0  0  0  0  0  0  0  0  0  0
    7.1248    1.8300   -0.2548 C   0  0  0  0  0  0  0  0  0  0  0  0
    5.2927    1.9371   -0.0236 S   0  0  0  0  0  0  0  0  0  0  0  0
    5.0135    0.2094   -0.1715 C   0  0  0  0  0  0  0  0  0  0  0  0
    3.6771   -0.4250   -0.0777 C   0  0  0  0  0  0  0  0  0  0  0  0
    3.5429   -1.7500   -0.2008 C   0  0  0  0  0  0  0  0  0  0  0  0
    4.6978   -3.0537   -0.4780 S   0  0  0  0  0  0  0  0  0  0  0  0
    3.5102   -4.4302   -0.4806 C   0  0  0  0  0  0  0  0  0  0  0  0
    2.3056   -3.7545   -0.2639 C   0  0  0  0  0  0  0  0  0  0  0  0
    2.3199   -2.4419   -0.1266 C   0  0  0  0  0  0  0  0  0  0  0  0
    1.2396   -1.6104    0.0904 N   0  0  0  0  0  0  0  0  0  0  0  0
    1.4169   -0.3002    0.2066 C   0  0  0  0  0  0  0  0  0  0  0  0
    0.2466    0.6176    0.4402 C   0  0  0  0  0  0  0  0  0  0  0  0
    0.3474    2.0358    0.0468 C   0  0  0  0  0  0  0  0  0  0  0  0
    0.5115    1.6448    1.5226 C   0  0  0  0  0  0  0  0  0  0  0  0
    2.6004    0.3443    0.1323 N   0  0  0  0  0  0  0  0  0  0  0  0
    6.1601   -0.2424   -0.3566 N   0  0  0  0  0  0  0  0  0  0  0  0
    8.2117    0.0167   -0.5756 H   0  0  0  0  0  0  0  0  0  0  0  0
    7.8944    2.6159   -0.2646 H   0  0  0  0  0  0  0  0  0  0  0  0
    3.6910   -5.5067   -0.6164 H   0  0  0  0  0  0  0  0  0  0  0  0
    1.3577   -4.3099   -0.2084 H   0  0  0  0  0  0  0  0  0  0  0  0
   -0.5124   -0.1482    0.2226 H   0  0  0  0  0  0  0  0  0  0  0  0
    1.2175    2.3853   -0.5283 H   0  0  0  0  0  0  0  0  0  0  0  0
   -0.2991    2.7359   -0.5025 H   0  0  0  0  0  0  0  0  0  0  0  0
    1.4978    1.7010    2.0062 H   0  0  0  0  0  0  0  0  0  0  0  0
    0.0382    1.9311    2.4734 H   0  0  0  0  0  0  0  0  0  0  0  0
  1  2  2  0
  2  3  1  0
  3  4  1  0
  4  5  1  0
  5  6  2  0
  6  7  1  0
  7  8  1  0
  8  9  2  0
  9 10  1  0
 10 11  2  0
 11 12  1  0
 12 13  1  0
 13 14  1  0
 14 15  1  0
 12 16  2  0
  4 17  2  0
 17  1  1  0
 16  5  1  0
 10  6  1  0
 15 13  1  0
  1 18  1  0
  2 19  1  0
  8 20  1  0
  9 21  1  0
 13 22  1  0
 14 23  1  0
 14 24  1  0
 15 25  1  0
 15 26  1  0
M  END
>  <Original_Name>  (92) 
CHEMBL260719

>  <ROSHAMBO_ComboTanimoto>  (92) 
0.771

>  <ROSHAMBO_ShapeTanimoto>  (92) 
0.49

>  <ROSHAMBO_ColorTanimoto>  (92) 
0.28

>  <ROSHAMBO_FitTverskyCombo>  (92) 
1.376

>  <ROSHAMBO_FitTversky>  (92) 
0.82

>  <ROSHAMBO_FitColorTversky>  (92) 
0.556

>  <ROSHAMBO_RefTverskyCombo>  (92) 
0.911

>  <ROSHAMBO_RefTversky>  (92) 
0.549

>  <ROSHAMBO_RefColorTversky>  (92) 
0.361

>  <ROSHAMBO_Overlap>  (92) 
663.77

$$$$
CHEMBL17859_0_86
     RDKit          3D

 32 34  0  0  0  0  0  0  0  0999 V2000
    4.1010   -1.6416   -0.3614 N   0  0  0  0  0  0  0  0  0  0  0  0
    3.0302   -0.7351   -0.1929 C   0  0  0  0  0  0  0  0  0  0  0  0
    1.7511   -1.2457   -0.1227 C   0  0  0  0  0  0  0  0  0  0  0  0
    1.2828   -2.5061   -0.1853 N   0  0  0  0  0  0  0  0  0  0  0  0
   -0.0768   -2.4674   -0.0628 C   0  0  0  0  0  0  0  0  0  0  0  0
   -0.4685   -1.1829    0.0773 N   0  0  0  0  0  0  0  0  0  0  0  0
   -1.7675   -0.6401    0.2359 C   0  0  0  0  0  0  0  0  0  0  0  0
   -2.9529   -1.8634    0.9308 S   0  0  0  0  0  0  0  0  0  0  0  0
   -4.4147   -1.3120   -0.0376 C   0  0  0  0  0  0  0  0  0  0  0  0
   -5.5864   -1.0686    0.8815 C   0  0  0  0  0  0  0  0  0  0  0  0
   -5.3422   -0.1056    1.8285 O   0  0  0  0  0  0  0  0  0  0  0  0
   -3.8666   -0.0216   -0.6167 C   0  0  0  0  0  0  0  0  0  0  0  0
   -4.6542    0.4539   -1.6620 O   0  0  0  0  0  0  0  0  0  0  0  0
   -2.4812   -0.4004   -1.1028 C   0  0  0  0  0  0  0  0  0  0  0  0
   -2.6292   -1.6216   -1.7765 O   0  0  0  0  0  0  0  0  0  0  0  0
    0.6544   -0.4196    0.0416 C   0  0  0  0  0  0  0  0  0  0  0  0
    0.9085    0.8985    0.1277 N   0  0  0  0  0  0  0  0  0  0  0  0
    2.1571    1.4000    0.0595 C   0  0  0  0  0  0  0  0  0  0  0  0
    2.4712    3.1349    0.1747 Cl  0  0  0  0  0  0  0  0  0  0  0  0
    3.2118    0.5928   -0.0995 N   0  0  0  0  0  0  0  0  0  0  0  0
    5.0681   -1.2915   -0.4175 H   0  0  0  0  0  0  0  0  0  0  0  0
    3.9145   -2.6523   -0.4282 H   0  0  0  0  0  0  0  0  0  0  0  0
   -0.7448   -3.3413   -0.0762 H   0  0  0  0  0  0  0  0  0  0  0  0
   -1.5745    0.2557    0.8444 H   0  0  0  0  0  0  0  0  0  0  0  0
   -4.7932   -2.0210   -0.7886 H   0  0  0  0  0  0  0  0  0  0  0  0
   -6.4466   -0.7508    0.2741 H   0  0  0  0  0  0  0  0  0  0  0  0
   -5.7820   -2.0096    1.4165 H   0  0  0  0  0  0  0  0  0  0  0  0
   -5.4418   -0.4983    2.7318 H   0  0  0  0  0  0  0  0  0  0  0  0
   -3.8524    0.7926    0.1229 H   0  0  0  0  0  0  0  0  0  0  0  0
   -5.4407    0.9287   -1.2931 H   0  0  0  0  0  0  0  0  0  0  0  0
   -1.9689    0.3174   -1.7603 H   0  0  0  0  0  0  0  0  0  0  0  0
   -2.7180   -2.3540   -1.1164 H   0  0  0  0  0  0  0  0  0  0  0  0
  1  2  1  0
  2  3  2  0
  3  4  1  0
  4  5  2  0
  5  6  1  0
  6  7  1  0
  7  8  1  0
  8  9  1  0
  9 10  1  0
 10 11  1  0
  9 12  1  0
 12 13  1  0
 12 14  1  0
 14 15  1  0
  6 16  1  0
 16 17  2  0
 17 18  1  0
 18 19  1  0
 18 20  2  0
 20  2  1  0
 16  3  1  0
 14  7  1  0
  1 21  1  0
  1 22  1  0
  5 23  1  0
  7 24  1  0
  9 25  1  0
 10 26  1  0
 10 27  1  0
 11 28  1  0
 12 29  1  0
 13 30  1  0
 14 31  1  0
 15 32  1  0
M  END
>  <Original_Name>  (93) 
CHEMBL17859

>  <ROSHAMBO_ComboTanimoto>  (93) 
0.769

>  <ROSHAMBO_ShapeTanimoto>  (93) 
0.566

>  <ROSHAMBO_ColorTanimoto>  (93) 
0.203

>  <ROSHAMBO_FitTverskyCombo>  (93) 
1.167

>  <ROSHAMBO_FitTversky>  (93) 
0.827

>  <ROSHAMBO_FitColorTversky>  (93) 
0.34

>  <ROSHAMBO_RefTverskyCombo>  (93) 
0.978

>  <ROSHAMBO_RefTversky>  (93) 
0.642

>  <ROSHAMBO_RefColorTversky>  (93) 
0.336

>  <ROSHAMBO_Overlap>  (93) 
780.362

$$$$
CHEMBL181981_0_20
     RDKit          3D

 31 34  0  0  0  0  0  0  0  0999 V2000
   -0.8428   -4.8170    0.5803 N   0  0  0  0  0  0  0  0  0  0  0  0
   -0.7319   -3.4039    0.4567 C   0  0  0  0  0  0  0  0  0  0  0  0
    0.4962   -2.8416    0.5065 N   0  0  0  0  0  0  0  0  0  0  0  0
    0.6136   -1.5094    0.3911 C   0  0  0  0  0  0  0  0  0  0  0  0
   -0.4955   -0.7448    0.2265 C   0  0  0  0  0  0  0  0  0  0  0  0
   -0.1329    0.5074    0.1391 O   0  0  0  0  0  0  0  0  0  0  0  0
    1.1671    0.6203    0.2372 C   0  0  0  0  0  0  0  0  0  0  0  0
    1.7021   -0.6321    0.3997 C   0  0  0  0  0  0  0  0  0  0  0  0
    3.0514   -0.8826    0.5360 C   0  0  0  0  0  0  0  0  0  0  0  0
    3.8909    0.2136    0.5032 C   0  0  0  0  0  0  0  0  0  0  0  0
    3.4273    1.5029    0.3432 C   0  0  0  0  0  0  0  0  0  0  0  0
    2.0687    1.6825    0.2127 C   0  0  0  0  0  0  0  0  0  0  0  0
   -1.7470   -1.2958    0.1737 C   0  0  0  0  0  0  0  0  0  0  0  0
   -2.9597   -0.5239   -0.0003 C   0  0  0  0  0  0  0  0  0  0  0  0
   -3.9255   -0.9413   -0.8909 C   0  0  0  0  0  0  0  0  0  0  0  0
   -5.0725   -0.2187   -1.0608 C   0  0  0  0  0  0  0  0  0  0  0  0
   -5.3109    0.9406   -0.3608 C   0  0  0  0  0  0  0  0  0  0  0  0
   -4.3777    1.3781    0.5246 C   0  0  0  0  0  0  0  0  0  0  0  0
   -3.2194    0.6351    0.6866 C   0  0  0  0  0  0  0  0  0  0  0  0
   -1.8402   -2.6336    0.2916 N   0  0  0  0  0  0  0  0  0  0  0  0
   -1.7691   -5.2659    0.5450 H   0  0  0  0  0  0  0  0  0  0  0  0
    0.0033   -5.3909    0.7050 H   0  0  0  0  0  0  0  0  0  0  0  0
    3.4394   -1.9039    0.6645 H   0  0  0  0  0  0  0  0  0  0  0  0
    4.9738    0.0519    0.6089 H   0  0  0  0  0  0  0  0  0  0  0  0
    4.1191    2.3577    0.3207 H   0  0  0  0  0  0  0  0  0  0  0  0
    1.6800    2.7034    0.0843 H   0  0  0  0  0  0  0  0  0  0  0  0
   -3.7715   -1.8639   -1.4696 H   0  0  0  0  0  0  0  0  0  0  0  0
   -5.8268   -0.5744   -1.7780 H   0  0  0  0  0  0  0  0  0  0  0  0
   -6.2424    1.5049   -0.5152 H   0  0  0  0  0  0  0  0  0  0  0  0
   -4.5383    2.3017    1.1001 H   0  0  0  0  0  0  0  0  0  0  0  0
   -2.4673    0.9939    1.4047 H   0  0  0  0  0  0  0  0  0  0  0  0
  1  2  1  0
  2  3  2  0
  3  4  1  0
  4  5  2  0
  5  6  1  0
  6  7  1  0
  7  8  2  0
  8  9  1  0
  9 10  2  0
 10 11  1  0
 11 12  2  0
  5 13  1  0
 13 14  1  0
 14 15  2  0
 15 16  1  0
 16 17  2  0
 17 18  1  0
 18 19  2  0
 13 20  2  0
 20  2  1  0
  8  4  1  0
 19 14  1  0
 12  7  1  0
  1 21  1  0
  1 22  1  0
  9 23  1  0
 10 24  1  0
 11 25  1  0
 12 26  1  0
 15 27  1  0
 16 28  1  0
 17 29  1  0
 18 30  1  0
 19 31  1  0
M  END
>  <Original_Name>  (94) 
CHEMBL181981

>  <ROSHAMBO_ComboTanimoto>  (94) 
0.767

>  <ROSHAMBO_ShapeTanimoto>  (94) 
0.548

>  <ROSHAMBO_ColorTanimoto>  (94) 
0.218

>  <ROSHAMBO_FitTverskyCombo>  (94) 
1.205

>  <ROSHAMBO_FitTversky>  (94) 
0.781

>  <ROSHAMBO_FitColorTversky>  (94) 
0.423

>  <ROSHAMBO_RefTverskyCombo>  (94) 
0.959

>  <ROSHAMBO_RefTversky>  (94) 
0.648

>  <ROSHAMBO_RefColorTversky>  (94) 
0.311

>  <ROSHAMBO_Overlap>  (94) 
789.308

$$$$
CHEMBL401321_0_61
     RDKit          3D

 31 33  0  0  0  0  0  0  0  0999 V2000
    0.4278   -4.8182   -0.6332 C   0  0  0  0  0  0  0  0  0  0  0  0
    0.5815   -3.3529   -0.4019 C   0  0  0  0  0  0  0  0  0  0  0  0
   -0.4300   -2.6527   -0.1891 O   0  0  0  0  0  0  0  0  0  0  0  0
    1.8656   -2.7714   -0.4252 N   0  0  0  0  0  0  0  0  0  0  0  0
    2.1672   -1.4010   -0.2237 C   0  0  0  0  0  0  0  0  0  0  0  0
    1.2830   -0.3989    0.0277 C   0  0  0  0  0  0  0  0  0  0  0  0
    1.7230    0.9226    0.2080 C   0  0  0  0  0  0  0  0  0  0  0  0
    0.7782    1.9554    0.4702 N   0  0  0  0  0  0  0  0  0  0  0  0
    0.7104    3.0773   -0.3029 C   0  0  0  0  0  0  0  0  0  0  0  0
   -0.2925    3.8741    0.2018 C   0  0  0  0  0  0  0  0  0  0  0  0
   -0.8257    3.2174    1.2864 C   0  0  0  0  0  0  0  0  0  0  0  0
   -0.1376    2.0452    1.4130 N   0  0  0  0  0  0  0  0  0  0  0  0
    3.0533    1.1620    0.1228 N   0  0  0  0  0  0  0  0  0  0  0  0
    3.9361    0.1914   -0.1231 C   0  0  0  0  0  0  0  0  0  0  0  0
    5.3640    0.4708   -0.2107 C   0  0  0  0  0  0  0  0  0  0  0  0
    6.1990    0.2866   -1.3136 C   0  0  0  0  0  0  0  0  0  0  0  0
    7.4726    0.6772   -0.9636 C   0  0  0  0  0  0  0  0  0  0  0  0
    7.3713    1.0898    0.3515 C   0  0  0  0  0  0  0  0  0  0  0  0
    6.1458    0.9490    0.7257 O   0  0  0  0  0  0  0  0  0  0  0  0
    3.4743   -1.0497   -0.2879 N   0  0  0  0  0  0  0  0  0  0  0  0
    0.3732   -5.3385    0.3344 H   0  0  0  0  0  0  0  0  0  0  0  0
   -0.4948   -5.0048   -1.2024 H   0  0  0  0  0  0  0  0  0  0  0  0
    1.2917   -5.1921   -1.2024 H   0  0  0  0  0  0  0  0  0  0  0  0
    2.6598   -3.4020   -0.6058 H   0  0  0  0  0  0  0  0  0  0  0  0
    0.2087   -0.6265    0.0907 H   0  0  0  0  0  0  0  0  0  0  0  0
    1.3435    3.3046   -1.1732 H   0  0  0  0  0  0  0  0  0  0  0  0
   -0.6083    4.8526   -0.1891 H   0  0  0  0  0  0  0  0  0  0  0  0
   -1.6474    3.5688    1.9277 H   0  0  0  0  0  0  0  0  0  0  0  0
    5.8923   -0.1039   -2.2952 H   0  0  0  0  0  0  0  0  0  0  0  0
    8.3742    0.6637   -1.5936 H   0  0  0  0  0  0  0  0  0  0  0  0
    8.1948    1.4727    0.9721 H   0  0  0  0  0  0  0  0  0  0  0  0
  1  2  1  0
  2  3  2  0
  2  4  1  0
  4  5  1  0
  5  6  2  0
  6  7  1  0
  7  8  1  0
  8  9  1  0
  9 10  2  0
 10 11  1  0
 11 12  2  0
  7 13  2  0
 13 14  1  0
 14 15  1  0
 15 16  2  0
 16 17  1  0
 17 18  2  0
 18 19  1  0
 14 20  2  0
 20  5  1  0
 12  8  1  0
 19 15  1  0
  1 21  1  0
  1 22  1  0
  1 23  1  0
  4 24  1  0
  6 25  1  0
  9 26  1  0
 10 27  1  0
 11 28  1  0
 16 29  1  0
 17 30  1  0
 18 31  1  0
M  END
>  <Original_Name>  (95) 
CHEMBL401321

>  <ROSHAMBO_ComboTanimoto>  (95) 
0.765

>  <ROSHAMBO_ShapeTanimoto>  (95) 
0.464

>  <ROSHAMBO_ColorTanimoto>  (95) 
0.301

>  <ROSHAMBO_FitTverskyCombo>  (95) 
1.253

>  <ROSHAMBO_FitTversky>  (95) 
0.71

>  <ROSHAMBO_FitColorTversky>  (95) 
0.543

>  <ROSHAMBO_RefTverskyCombo>  (95) 
0.975

>  <ROSHAMBO_RefTversky>  (95) 
0.572

>  <ROSHAMBO_RefColorTversky>  (95) 
0.404

>  <ROSHAMBO_Overlap>  (95) 
695.856

$$$$
CHEMBL17859_0_41
     RDKit          3D

 32 34  0  0  0  0  0  0  0  0999 V2000
    4.5373    1.8407   -0.7076 N   0  0  0  0  0  0  0  0  0  0  0  0
    3.5922    0.8297   -0.3669 C   0  0  0  0  0  0  0  0  0  0  0  0
    2.2818    1.1529   -0.0798 C   0  0  0  0  0  0  0  0  0  0  0  0
    1.5894    2.3125   -0.0345 N   0  0  0  0  0  0  0  0  0  0  0  0
    0.3017    2.0651    0.3083 C   0  0  0  0  0  0  0  0  0  0  0  0
    0.1604    0.7574    0.4836 N   0  0  0  0  0  0  0  0  0  0  0  0
   -1.0440    0.0585    0.8545 C   0  0  0  0  0  0  0  0  0  0  0  0
   -2.4863    1.1762    0.8378 S   0  0  0  0  0  0  0  0  0  0  0  0
   -3.6358   -0.0585    0.1282 C   0  0  0  0  0  0  0  0  0  0  0  0
   -4.6309    0.6059   -0.7953 C   0  0  0  0  0  0  0  0  0  0  0  0
   -5.4010    1.5643   -0.1358 O   0  0  0  0  0  0  0  0  0  0  0  0
   -2.7138   -0.9027   -0.6577 C   0  0  0  0  0  0  0  0  0  0  0  0
   -3.3082   -2.1753   -0.7876 O   0  0  0  0  0  0  0  0  0  0  0  0
   -1.4045   -1.0488   -0.0376 C   0  0  0  0  0  0  0  0  0  0  0  0
   -1.2963   -2.2860    0.6394 O   0  0  0  0  0  0  0  0  0  0  0  0
    1.3334    0.1838    0.2573 C   0  0  0  0  0  0  0  0  0  0  0  0
    1.7391   -1.0848    0.2940 N   0  0  0  0  0  0  0  0  0  0  0  0
    3.0095   -1.4078    0.0168 C   0  0  0  0  0  0  0  0  0  0  0  0
    3.4407   -3.1130    0.0942 Cl  0  0  0  0  0  0  0  0  0  0  0  0
    3.9355   -0.4699   -0.3114 N   0  0  0  0  0  0  0  0  0  0  0  0
    5.5121    1.5840   -0.9194 H   0  0  0  0  0  0  0  0  0  0  0  0
    4.2456    2.8279   -0.7421 H   0  0  0  0  0  0  0  0  0  0  0  0
   -0.4908    2.8195    0.4218 H   0  0  0  0  0  0  0  0  0  0  0  0
   -0.8146   -0.3338    1.8562 H   0  0  0  0  0  0  0  0  0  0  0  0
   -4.2280   -0.5992    0.8811 H   0  0  0  0  0  0  0  0  0  0  0  0
   -4.0830    1.0939   -1.6148 H   0  0  0  0  0  0  0  0  0  0  0  0
   -5.3104   -0.1709   -1.1759 H   0  0  0  0  0  0  0  0  0  0  0  0
   -5.3068    1.4471    0.8427 H   0  0  0  0  0  0  0  0  0  0  0  0
   -2.5489   -0.4183   -1.6314 H   0  0  0  0  0  0  0  0  0  0  0  0
   -3.4837   -2.5509    0.1115 H   0  0  0  0  0  0  0  0  0  0  0  0
   -0.6813   -1.0243   -0.8661 H   0  0  0  0  0  0  0  0  0  0  0  0
   -1.3100   -2.1296    1.6169 H   0  0  0  0  0  0  0  0  0  0  0  0
  1  2  1  0
  2  3  2  0
  3  4  1  0
  4  5  2  0
  5  6  1  0
  6  7  1  0
  7  8  1  0
  8  9  1  0
  9 10  1  0
 10 11  1  0
  9 12  1  0
 12 13  1  0
 12 14  1  0
 14 15  1  0
  6 16  1  0
 16 17  2  0
 17 18  1  0
 18 19  1  0
 18 20  2  0
 20  2  1  0
 16  3  1  0
 14  7  1  0
  1 21  1  0
  1 22  1  0
  5 23  1  0
  7 24  1  0
  9 25  1  0
 10 26  1  0
 10 27  1  0
 11 28  1  0
 12 29  1  0
 13 30  1  0
 14 31  1  0
 15 32  1  0
M  END
>  <Original_Name>  (96) 
CHEMBL17859

>  <ROSHAMBO_ComboTanimoto>  (96) 
0.764

>  <ROSHAMBO_ShapeTanimoto>  (96) 
0.555

>  <ROSHAMBO_ColorTanimoto>  (96) 
0.209

>  <ROSHAMBO_FitTverskyCombo>  (96) 
1.164

>  <ROSHAMBO_FitTversky>  (96) 
0.817

>  <ROSHAMBO_FitColorTversky>  (96) 
0.347

>  <ROSHAMBO_RefTverskyCombo>  (96) 
0.979

>  <ROSHAMBO_RefTversky>  (96) 
0.635

>  <ROSHAMBO_RefColorTversky>  (96) 
0.345

>  <ROSHAMBO_Overlap>  (96) 
771.219

$$$$
CHEMBL17859_0_19
     RDKit          3D

 32 34  0  0  0  0  0  0  0  0999 V2000
    4.4630    1.2555    0.6674 N   0  0  0  0  0  0  0  0  0  0  0  0
    3.6251    0.1576    0.3280 C   0  0  0  0  0  0  0  0  0  0  0  0
    2.2619    0.2920    0.3945 C   0  0  0  0  0  0  0  0  0  0  0  0
    1.4999    1.3238    0.7397 N   0  0  0  0  0  0  0  0  0  0  0  0
    0.1989    0.9487    0.6411 C   0  0  0  0  0  0  0  0  0  0  0  0
    0.1119   -0.3137    0.2359 N   0  0  0  0  0  0  0  0  0  0  0  0
   -1.0739   -1.0741    0.0112 C   0  0  0  0  0  0  0  0  0  0  0  0
   -1.7098   -0.7988   -1.6909 S   0  0  0  0  0  0  0  0  0  0  0  0
   -3.4750   -0.6464   -1.2895 C   0  0  0  0  0  0  0  0  0  0  0  0
   -3.9902    0.7357   -1.5263 C   0  0  0  0  0  0  0  0  0  0  0  0
   -5.3422    0.7502   -1.1918 O   0  0  0  0  0  0  0  0  0  0  0  0
   -3.5008   -1.0636    0.1495 C   0  0  0  0  0  0  0  0  0  0  0  0
   -3.6809   -2.4187    0.3379 O   0  0  0  0  0  0  0  0  0  0  0  0
   -2.2491   -0.5734    0.8108 C   0  0  0  0  0  0  0  0  0  0  0  0
   -2.1765   -1.1909    2.0668 O   0  0  0  0  0  0  0  0  0  0  0  0
    1.3904   -0.7378    0.0776 C   0  0  0  0  0  0  0  0  0  0  0  0
    1.9452   -1.8979   -0.3055 N   0  0  0  0  0  0  0  0  0  0  0  0
    3.2926   -2.0732   -0.3848 C   0  0  0  0  0  0  0  0  0  0  0  0
    3.9002   -3.6289   -0.8962 Cl  0  0  0  0  0  0  0  0  0  0  0  0
    4.1059   -1.0385   -0.0654 N   0  0  0  0  0  0  0  0  0  0  0  0
    5.4870    1.1564    0.6180 H   0  0  0  0  0  0  0  0  0  0  0  0
    4.0458    2.1498    0.9625 H   0  0  0  0  0  0  0  0  0  0  0  0
   -0.6608    1.5976    0.8646 H   0  0  0  0  0  0  0  0  0  0  0  0
   -0.7749   -2.1047    0.2529 H   0  0  0  0  0  0  0  0  0  0  0  0
   -4.1370   -1.2577   -1.9203 H   0  0  0  0  0  0  0  0  0  0  0  0
   -3.4416    1.4523   -0.8974 H   0  0  0  0  0  0  0  0  0  0  0  0
   -3.8523    1.0214   -2.5796 H   0  0  0  0  0  0  0  0  0  0  0  0
   -5.4383    0.7513   -0.2065 H   0  0  0  0  0  0  0  0  0  0  0  0
   -4.3838   -0.6034    0.6170 H   0  0  0  0  0  0  0  0  0  0  0  0
   -3.7072   -2.6165    1.3076 H   0  0  0  0  0  0  0  0  0  0  0  0
   -2.2451    0.5240    0.8865 H   0  0  0  0  0  0  0  0  0  0  0  0
   -2.2570   -0.5056    2.7767 H   0  0  0  0  0  0  0  0  0  0  0  0
  1  2  1  0
  2  3  2  0
  3  4  1  0
  4  5  2  0
  5  6  1  0
  6  7  1  0
  7  8  1  0
  8  9  1  0
  9 10  1  0
 10 11  1  0
  9 12  1  0
 12 13  1  0
 12 14  1  0
 14 15  1  0
  6 16  1  0
 16 17  2  0
 17 18  1  0
 18 19  1  0
 18 20  2  0
 20  2  1  0
 16  3  1  0
 14  7  1  0
  1 21  1  0
  1 22  1  0
  5 23  1  0
  7 24  1  0
  9 25  1  0
 10 26  1  0
 10 27  1  0
 11 28  1  0
 12 29  1  0
 13 30  1  0
 14 31  1  0
 15 32  1  0
M  END
>  <Original_Name>  (97) 
CHEMBL17859

>  <ROSHAMBO_ComboTanimoto>  (97) 
0.764

>  <ROSHAMBO_ShapeTanimoto>  (97) 
0.555

>  <ROSHAMBO_ColorTanimoto>  (97) 
0.209

>  <ROSHAMBO_FitTverskyCombo>  (97) 
1.165

>  <ROSHAMBO_FitTversky>  (97) 
0.817

>  <ROSHAMBO_FitColorTversky>  (97) 
0.347

>  <ROSHAMBO_RefTverskyCombo>  (97) 
0.978

>  <ROSHAMBO_RefTversky>  (97) 
0.634

>  <ROSHAMBO_RefColorTversky>  (97) 
0.344

>  <ROSHAMBO_Overlap>  (97) 
770.407

$$$$
CHEMBL17103_0_40
     RDKit          3D

 69 73  0  0  0  0  0  0  0  0999 V2000
   11.4082    3.1420   -1.2632 O   0  0  0  0  0  1  0  0  0  0  0  0
   10.7850    1.8966   -1.2319 C   0  0  0  0  0  0  0  0  0  0  0  0
   11.5044    0.8879   -1.4371 O   0  0  0  0  0  0  0  0  0  0  0  0
    9.3589    1.8097   -0.9693 C   0  0  0  0  0  0  0  0  0  0  0  0
    8.7702    0.6569   -0.9390 C   0  0  0  0  0  0  0  0  0  0  0  0
    7.3449    0.4480   -0.6853 C   0  0  0  0  0  0  0  0  0  0  0  0
    6.4559    1.4723   -0.4503 C   0  0  0  0  0  0  0  0  0  0  0  0
    5.1100    1.2160   -0.2136 C   0  0  0  0  0  0  0  0  0  0  0  0
    4.6115   -0.0621   -0.2042 C   0  0  0  0  0  0  0  0  0  0  0  0
    5.4801   -1.1024   -0.4365 C   0  0  0  0  0  0  0  0  0  0  0  0
    6.8158   -0.8305   -0.6701 C   0  0  0  0  0  0  0  0  0  0  0  0
    3.1877   -0.3119    0.0461 C   0  0  0  0  0  0  0  0  0  0  0  0
    2.2183    0.5880    0.2870 N   0  0  0  0  0  0  0  0  0  0  0  0
    1.0291   -0.0146    0.4681 C   0  0  0  0  0  0  0  0  0  0  0  0
    1.2671   -1.3618    0.3338 C   0  0  0  0  0  0  0  0  0  0  0  0
    2.5799   -1.5123    0.0793 N   0  0  0  0  0  0  0  0  0  0  0  0
    0.2176   -2.2007    0.4717 N   0  0  0  0  0  0  0  0  0  0  0  0
    0.5082   -3.6099    0.3499 C   0  0  0  0  0  0  0  0  0  0  0  0
    0.4467   -4.1358   -1.0577 C   0  0  0  0  0  0  0  0  0  0  0  0
    0.7583   -5.6094   -1.1165 C   0  0  0  0  0  0  0  0  0  0  0  0
   -0.2923   -6.3681   -1.9091 C   0  0  0  0  0  0  0  0  0  0  0  0
   -0.4862   -5.7299   -3.2738 C   0  0  0  0  0  0  0  0  0  0  0  0
   -0.9488   -4.2962   -3.1245 C   0  0  0  0  0  0  0  0  0  0  0  0
   -0.8861   -3.8535   -1.6690 C   0  0  0  0  0  0  0  0  0  0  0  0
   -1.0243   -1.7310    0.7329 C   0  0  0  0  0  0  0  0  0  0  0  0
   -1.9899   -2.5427    0.8592 O   0  0  0  0  0  0  0  0  0  0  0  0
   -1.2994   -0.4221    0.8717 N   0  0  0  0  0  0  0  0  0  0  0  0
   -2.6328    0.0185    1.1441 C   0  0  0  0  0  0  0  0  0  0  0  0
   -3.4736    0.3802   -0.0249 C   0  0  0  0  0  0  0  0  0  0  0  0
   -3.6831   -0.7277   -0.9939 C   0  0  0  0  0  0  0  0  0  0  0  0
   -4.4314   -0.1839   -2.1966 C   0  0  0  0  0  0  0  0  0  0  0  0
   -5.7578    0.3283   -1.7517 C   0  0  0  0  0  0  0  0  0  0  0  0
   -5.9818    0.2427   -0.2798 C   0  0  0  0  0  0  0  0  0  0  0  0
   -4.8492    0.7622    0.5397 C   0  0  0  0  0  0  0  0  0  0  0  0
   -0.2599    0.4261    0.7363 C   0  0  0  0  0  0  0  0  0  0  0  0
   -0.4330    1.6493    0.8506 O   0  0  0  0  0  0  0  0  0  0  0  0
    8.7770    2.7268   -0.7955 H   0  0  0  0  0  0  0  0  0  0  0  0
    9.3898   -0.2342   -1.1180 H   0  0  0  0  0  0  0  0  0  0  0  0
    6.8164    2.5115   -0.4499 H   0  0  0  0  0  0  0  0  0  0  0  0
    4.4279    2.0591   -0.0292 H   0  0  0  0  0  0  0  0  0  0  0  0
    5.1161   -2.1404   -0.4365 H   0  0  0  0  0  0  0  0  0  0  0  0
    7.4945   -1.6765   -0.8538 H   0  0  0  0  0  0  0  0  0  0  0  0
    3.0515   -2.4159   -0.0687 H   0  0  0  0  0  0  0  0  0  0  0  0
    1.5214   -3.7875    0.7399 H   0  0  0  0  0  0  0  0  0  0  0  0
   -0.2686   -4.1418    0.9189 H   0  0  0  0  0  0  0  0  0  0  0  0
    1.2178   -3.6110   -1.6407 H   0  0  0  0  0  0  0  0  0  0  0  0
    1.7382   -5.7489   -1.5963 H   0  0  0  0  0  0  0  0  0  0  0  0
    0.7666   -6.0022   -0.0890 H   0  0  0  0  0  0  0  0  0  0  0  0
    0.0339   -7.4105   -2.0391 H   0  0  0  0  0  0  0  0  0  0  0  0
   -1.2455   -6.3369   -1.3610 H   0  0  0  0  0  0  0  0  0  0  0  0
    0.4678   -5.7478   -3.8212 H   0  0  0  0  0  0  0  0  0  0  0  0
   -1.2501   -6.2957   -3.8272 H   0  0  0  0  0  0  0  0  0  0  0  0
   -0.3001   -3.6438   -3.7276 H   0  0  0  0  0  0  0  0  0  0  0  0
   -1.9912   -4.2257   -3.4686 H   0  0  0  0  0  0  0  0  0  0  0  0
   -1.0788   -2.7718   -1.6177 H   0  0  0  0  0  0  0  0  0  0  0  0
   -1.6449   -4.4188   -1.1079 H   0  0  0  0  0  0  0  0  0  0  0  0
   -3.1459   -0.7905    1.6847 H   0  0  0  0  0  0  0  0  0  0  0  0
   -2.5152    0.9529    1.7124 H   0  0  0  0  0  0  0  0  0  0  0  0
   -2.9617    1.1852   -0.5724 H   0  0  0  0  0  0  0  0  0  0  0  0
   -2.7102   -1.1295   -1.3134 H   0  0  0  0  0  0  0  0  0  0  0  0
   -4.2643   -1.5341   -0.5229 H   0  0  0  0  0  0  0  0  0  0  0  0
   -3.8537    0.6343   -2.6513 H   0  0  0  0  0  0  0  0  0  0  0  0
   -4.5717   -0.9830   -2.9394 H   0  0  0  0  0  0  0  0  0  0  0  0
   -5.8393    1.3832   -2.0526 H   0  0  0  0  0  0  0  0  0  0  0  0
   -6.5189   -0.3091   -2.2257 H   0  0  0  0  0  0  0  0  0  0  0  0
   -6.8821    0.8245   -0.0329 H   0  0  0  0  0  0  0  0  0  0  0  0
   -6.0859   -0.8249   -0.0363 H   0  0  0  0  0  0  0  0  0  0  0  0
   -4.9194    1.8593    0.5787 H   0  0  0  0  0  0  0  0  0  0  0  0
   -4.9316    0.3089    1.5386 H   0  0  0  0  0  0  0  0  0  0  0  0
  1  2  1  0
  2  3  2  0
  2  4  1  0
  4  5  2  3
  5  6  1  0
  6  7  2  0
  7  8  1  0
  8  9  2  0
  9 10  1  0
 10 11  2  0
  9 12  1  0
 12 13  2  0
 13 14  1  0
 14 15  2  0
 15 16  1  0
 15 17  1  0
 17 18  1  0
 18 19  1  0
 19 20  1  0
 20 21  1  0
 21 22  1  0
 22 23  1  0
 23 24  1  0
 17 25  1  0
 25 26  2  0
 25 27  1  0
 27 28  1  0
 28 29  1  0
 29 30  1  0
 30 31  1  0
 31 32  1  0
 32 33  1  0
 33 34  1  0
 27 35  1  0
 35 36  2  0
 11  6  1  0
 16 12  1  0
 24 19  1  0
 34 29  1  0
 35 14  1  0
  4 37  1  0
  5 38  1  0
  7 39  1  0
  8 40  1  0
 10 41  1  0
 11 42  1  0
 16 43  1  0
 18 44  1  0
 18 45  1  0
 19 46  1  0
 20 47  1  0
 20 48  1  0
 21 49  1  0
 21 50  1  0
 22 51  1  0
 22 52  1  0
 23 53  1  0
 23 54  1  0
 24 55  1  0
 24 56  1  0
 28 57  1  0
 28 58  1  0
 29 59  1  0
 30 60  1  0
 30 61  1  0
 31 62  1  0
 31 63  1  0
 32 64  1  0
 32 65  1  0
 33 66  1  0
 33 67  1  0
 34 68  1  0
 34 69  1  0
M  CHG  1   1  -1
M  END
>  <Original_Name>  (98) 
CHEMBL17103

>  <ROSHAMBO_ComboTanimoto>  (98) 
0.757

>  <ROSHAMBO_ShapeTanimoto>  (98) 
0.55

>  <ROSHAMBO_ColorTanimoto>  (98) 
0.208

>  <ROSHAMBO_FitTverskyCombo>  (98) 
0.897

>  <ROSHAMBO_FitTversky>  (98) 
0.619

>  <ROSHAMBO_FitColorTversky>  (98) 
0.278

>  <ROSHAMBO_RefTverskyCombo>  (98) 
1.281

>  <ROSHAMBO_RefTversky>  (98) 
0.831

>  <ROSHAMBO_RefColorTversky>  (98) 
0.45

>  <ROSHAMBO_Overlap>  (98) 
1042.504

$$$$
CHEMBL17859_0_20
     RDKit          3D

 32 34  0  0  0  0  0  0  0  0999 V2000
    4.7994    0.7375   -0.2539 N   0  0  0  0  0  0  0  0  0  0  0  0
    3.7333   -0.2224   -0.2192 C   0  0  0  0  0  0  0  0  0  0  0  0
    2.4331    0.1925   -0.0249 C   0  0  0  0  0  0  0  0  0  0  0  0
    1.8928    1.4216    0.1570 N   0  0  0  0  0  0  0  0  0  0  0  0
    0.5614    1.2944    0.3030 C   0  0  0  0  0  0  0  0  0  0  0  0
    0.2248    0.0112    0.2201 N   0  0  0  0  0  0  0  0  0  0  0  0
   -1.0719   -0.6275    0.3130 C   0  0  0  0  0  0  0  0  0  0  0  0
   -2.3797    0.6628    0.3262 S   0  0  0  0  0  0  0  0  0  0  0  0
   -3.4872   -0.0596   -0.9490 C   0  0  0  0  0  0  0  0  0  0  0  0
   -4.8809   -0.0857   -0.4091 C   0  0  0  0  0  0  0  0  0  0  0  0
   -4.9481   -0.8561    0.7476 O   0  0  0  0  0  0  0  0  0  0  0  0
   -2.8864   -1.4441   -1.0818 C   0  0  0  0  0  0  0  0  0  0  0  0
   -3.3631   -2.3274   -0.1431 O   0  0  0  0  0  0  0  0  0  0  0  0
   -1.3831   -1.2662   -1.0333 C   0  0  0  0  0  0  0  0  0  0  0  0
   -1.0477   -0.3227   -2.0040 O   0  0  0  0  0  0  0  0  0  0  0  0
    1.3608   -0.6769    0.0192 C   0  0  0  0  0  0  0  0  0  0  0  0
    1.6496   -2.0003   -0.1419 N   0  0  0  0  0  0  0  0  0  0  0  0
    2.9204   -2.4094   -0.3321 C   0  0  0  0  0  0  0  0  0  0  0  0
    3.1715   -4.1377   -0.5274 Cl  0  0  0  0  0  0  0  0  0  0  0  0
    3.9547   -1.5410   -0.3718 N   0  0  0  0  0  0  0  0  0  0  0  0
    5.7699    0.4244   -0.3993 H   0  0  0  0  0  0  0  0  0  0  0  0
    4.5942    1.7397   -0.1336 H   0  0  0  0  0  0  0  0  0  0  0  0
   -0.1410    2.1251    0.4660 H   0  0  0  0  0  0  0  0  0  0  0  0
   -1.0524   -1.2979    1.1849 H   0  0  0  0  0  0  0  0  0  0  0  0
   -3.5537    0.4739   -1.9087 H   0  0  0  0  0  0  0  0  0  0  0  0
   -5.1970    0.9420   -0.1768 H   0  0  0  0  0  0  0  0  0  0  0  0
   -5.5443   -0.5283   -1.1667 H   0  0  0  0  0  0  0  0  0  0  0  0
   -4.8966   -0.2659    1.5407 H   0  0  0  0  0  0  0  0  0  0  0  0
   -3.1823   -1.9056   -2.0354 H   0  0  0  0  0  0  0  0  0  0  0  0
   -3.1748   -1.9785    0.7640 H   0  0  0  0  0  0  0  0  0  0  0  0
   -0.8511   -2.2169   -1.1851 H   0  0  0  0  0  0  0  0  0  0  0  0
   -0.7506    0.5127   -1.5636 H   0  0  0  0  0  0  0  0  0  0  0  0
  1  2  1  0
  2  3  2  0
  3  4  1  0
  4  5  2  0
  5  6  1  0
  6  7  1  0
  7  8  1  0
  8  9  1  0
  9 10  1  0
 10 11  1  0
  9 12  1  0
 12 13  1  0
 12 14  1  0
 14 15  1  0
  6 16  1  0
 16 17  2  0
 17 18  1  0
 18 19  1  0
 18 20  2  0
 20  2  1  0
 16  3  1  0
 14  7  1  0
  1 21  1  0
  1 22  1  0
  5 23  1  0
  7 24  1  0
  9 25  1  0
 10 26  1  0
 10 27  1  0
 11 28  1  0
 12 29  1  0
 13 30  1  0
 14 31  1  0
 15 32  1  0
M  END
>  <Original_Name>  (99) 
CHEMBL17859

>  <ROSHAMBO_ComboTanimoto>  (99) 
0.756

>  <ROSHAMBO_ShapeTanimoto>  (99) 
0.555

>  <ROSHAMBO_ColorTanimoto>  (99) 
0.2

>  <ROSHAMBO_FitTverskyCombo>  (99) 
1.148

>  <ROSHAMBO_FitTversky>  (99) 
0.814

>  <ROSHAMBO_FitColorTversky>  (99) 
0.334

>  <ROSHAMBO_RefTverskyCombo>  (99) 
0.969

>  <ROSHAMBO_RefTversky>  (99) 
0.636

>  <ROSHAMBO_RefColorTversky>  (99) 
0.333

>  <ROSHAMBO_Overlap>  (99) 
773.553

$$$$
CHEMBL608029_0_69
     RDKit          3D

 53 56  0  0  0  0  0  0  0  0999 V2000
   -6.8671   -0.5785   -0.7806 C   0  0  0  0  0  0  0  0  0  0  0  0
   -7.8206    0.4686   -0.2684 C   0  0  0  0  0  0  0  0  0  0  0  0
   -7.1496    1.7637    0.0901 C   0  0  0  0  0  0  0  0  0  0  0  0
   -6.1244    1.6857    1.1667 C   0  0  0  0  0  0  0  0  0  0  0  0
   -4.9794    0.8340    0.8969 C   0  0  0  0  0  0  0  0  0  0  0  0
   -4.0320    0.1126    0.6554 C   0  0  0  0  0  0  0  0  0  0  0  0
   -2.8934   -0.7356    0.3466 C   0  0  0  0  0  0  0  0  0  0  0  0
   -3.0511   -1.9311   -0.2419 N   0  0  0  0  0  0  0  0  0  0  0  0
   -2.0548   -2.7666   -0.5583 C   0  0  0  0  0  0  0  0  0  0  0  0
   -2.2451   -4.0189   -1.1750 N   0  0  0  0  0  0  0  0  0  0  0  0
   -0.7622   -2.3900   -0.2664 C   0  0  0  0  0  0  0  0  0  0  0  0
    0.4575   -2.9256   -0.4197 N   0  0  0  0  0  0  0  0  0  0  0  0
    1.3599   -2.0624    0.0724 C   0  0  0  0  0  0  0  0  0  0  0  0
    0.7491   -0.9588    0.5514 N   0  0  0  0  0  0  0  0  0  0  0  0
    1.3392    0.1935    1.1591 C   0  0  0  0  0  0  0  0  0  0  0  0
    2.7199    0.1454    0.8388 O   0  0  0  0  0  0  0  0  0  0  0  0
    2.7888    0.8990   -0.3545 C   0  0  2  0  0  0  0  0  0  0  0  0
    4.1649    1.1084   -0.7821 C   0  0  0  0  0  0  0  0  0  0  0  0
    4.4400    1.7428   -1.8216 O   0  0  0  0  0  0  0  0  0  0  0  0
    5.2827    0.5999   -0.0365 N   0  0  0  0  0  0  0  0  0  0  0  0
    6.6498    0.8022   -0.4533 C   0  0  0  0  0  0  0  0  0  0  0  0
    7.6355    1.3626    0.5608 C   0  0  0  0  0  0  0  0  0  0  0  0
    7.7644   -0.0338   -0.0638 C   0  0  0  0  0  0  0  0  0  0  0  0
    2.1229    2.1689    0.1882 C   0  0  1  0  0  0  0  0  0  0  0  0
    1.8887    3.1167   -0.7704 O   0  0  0  0  0  0  0  0  0  0  0  0
    0.8258    1.5120    0.6982 C   0  0  1  0  0  0  0  0  0  0  0  0
    0.0149    1.4201   -0.4511 O   0  0  0  0  0  0  0  0  0  0  0  0
   -0.5744   -1.1664    0.3383 C   0  0  0  0  0  0  0  0  0  0  0  0
   -1.6296   -0.3756    0.6280 N   0  0  0  0  0  0  0  0  0  0  0  0
   -6.3975   -1.0943    0.0699 H   0  0  0  0  0  0  0  0  0  0  0  0
   -7.4178   -1.3077   -1.3930 H   0  0  0  0  0  0  0  0  0  0  0  0
   -6.0897   -0.0983   -1.3930 H   0  0  0  0  0  0  0  0  0  0  0  0
   -8.5702    0.6687   -1.0482 H   0  0  0  0  0  0  0  0  0  0  0  0
   -8.2733    0.0723    0.6525 H   0  0  0  0  0  0  0  0  0  0  0  0
   -6.6596    2.1519   -0.8151 H   0  0  0  0  0  0  0  0  0  0  0  0
   -7.9454    2.4143    0.4818 H   0  0  0  0  0  0  0  0  0  0  0  0
   -5.7505    2.7039    1.3494 H   0  0  0  0  0  0  0  0  0  0  0  0
   -6.6346    1.2312    2.0287 H   0  0  0  0  0  0  0  0  0  0  0  0
   -1.4334   -4.6146   -1.3920 H   0  0  0  0  0  0  0  0  0  0  0  0
   -3.1959   -4.3386   -1.4088 H   0  0  0  0  0  0  0  0  0  0  0  0
    2.4468   -2.2314    0.0836 H   0  0  0  0  0  0  0  0  0  0  0  0
    1.0982    0.1418    2.2311 H   0  0  0  0  0  0  0  0  0  0  0  0
    2.3296    0.4629   -1.2540 H   0  0  0  0  0  0  0  0  0  0  0  0
    5.1016    0.0707    0.8284 H   0  0  0  0  0  0  0  0  0  0  0  0
    6.2680    1.0854   -1.4453 H   0  0  0  0  0  0  0  0  0  0  0  0
    8.3305    2.1675    0.2796 H   0  0  0  0  0  0  0  0  0  0  0  0
    7.5837    1.7803    1.5771 H   0  0  0  0  0  0  0  0  0  0  0  0
    8.5714   -0.2385   -0.7827 H   0  0  0  0  0  0  0  0  0  0  0  0
    7.8589   -1.0525    0.3402 H   0  0  0  0  0  0  0  0  0  0  0  0
    2.7104    2.7394    0.9227 H   0  0  0  0  0  0  0  0  0  0  0  0
    1.6753    3.9801   -0.3355 H   0  0  0  0  0  0  0  0  0  0  0  0
    0.2467    2.0089    1.4905 H   0  0  0  0  0  0  0  0  0  0  0  0
   -0.9311    1.3129   -0.1798 H   0  0  0  0  0  0  0  0  0  0  0  0
  1  2  1  0
  2  3  1  0
  3  4  1  0
  4  5  1  0
  5  6  3  0
  6  7  1  0
  7  8  2  0
  8  9  1  0
  9 10  1  0
  9 11  2  0
 11 12  1  0
 12 13  2  0
 13 14  1  0
 14 15  1  0
 15 16  1  0
 16 17  1  0
 17 18  1  0
 18 19  2  0
 18 20  1  0
 20 21  1  0
 21 22  1  0
 22 23  1  0
 17 24  1  0
 24 25  1  0
 24 26  1  0
 26 27  1  0
 14 28  1  0
 28 29  2  0
 29  7  1  0
 28 11  1  0
 26 15  1  0
 23 21  1  0
  1 30  1  0
  1 31  1  0
  1 32  1  0
  2 33  1  0
  2 34  1  0
  3 35  1  0
  3 36  1  0
  4 37  1  0
  4 38  1  0
 10 39  1  0
 10 40  1  0
 13 41  1  0
 15 42  1  0
 17 43  1  6
 20 44  1  0
 21 45  1  0
 22 46  1  0
 22 47  1  0
 23 48  1  0
 23 49  1  0
 24 50  1  1
 25 51  1  0
 26 52  1  1
 27 53  1  0
M  END
>  <Original_Name>  (100) 
CHEMBL608029

>  <ROSHAMBO_ComboTanimoto>  (100) 
0.751

>  <ROSHAMBO_ShapeTanimoto>  (100) 
0.614

>  <ROSHAMBO_ColorTanimoto>  (100) 
0.138

>  <ROSHAMBO_FitTverskyCombo>  (100) 
0.937

>  <ROSHAMBO_FitTversky>  (100) 
0.725

>  <ROSHAMBO_FitColorTversky>  (100) 
0.212

>  <ROSHAMBO_RefTverskyCombo>  (100) 
1.082

>  <ROSHAMBO_RefTversky>  (100) 
0.8

>  <ROSHAMBO_RefColorTversky>  (100) 
0.283

>  <ROSHAMBO_Overlap>  (100) 
989.469

$$$$
CHEMBL272679_0_39
     RDKit          3D

 59 62  0  0  0  0  0  0  0  0999 V2000
   -0.5132   -6.6825   -2.1635 C   0  0  0  0  0  0  0  0  0  0  0  0
   -0.3996   -5.4922   -1.2947 C   0  0  0  0  0  0  0  0  0  0  0  0
    0.4088   -5.4697   -0.1596 C   0  0  0  0  0  0  0  0  0  0  0  0
    0.2452   -4.2082    0.3669 C   0  0  0  0  0  0  0  0  0  0  0  0
   -0.6286   -3.5195   -0.4340 C   0  0  0  0  0  0  0  0  0  0  0  0
   -1.0566   -2.1477   -0.2086 C   0  0  0  0  0  0  0  0  0  0  0  0
   -0.1741   -1.1492    0.0366 N   0  0  0  0  0  0  0  0  0  0  0  0
   -0.5236    0.1281    0.2498 C   0  0  0  0  0  0  0  0  0  0  0  0
    0.4749    1.1094    0.4996 N   0  0  0  0  0  0  0  0  0  0  0  0
    1.8444    0.7412    0.5231 C   0  0  0  0  0  0  0  0  0  0  0  0
    2.1123   -0.4709    0.3151 O   0  0  0  0  0  0  0  0  0  0  0  0
    2.9283    1.7467    0.7836 C   0  0  0  0  0  0  0  0  0  0  0  0
    4.2847    1.0652    0.7505 C   0  0  0  0  0  0  0  0  0  0  0  0
    4.5128    0.4371   -0.5983 C   0  0  0  0  0  0  0  0  0  0  0  0
    5.8751    0.7474   -1.1222 C   0  0  0  0  0  0  0  0  0  0  0  0
    6.9255    0.6722   -0.1310 N   0  0  0  0  0  4  0  0  0  0  0  0
    6.9730   -0.6799    0.3790 C   0  0  0  0  0  0  0  0  0  0  0  0
    6.7286    1.5817    0.9593 C   0  0  0  0  0  0  0  0  0  0  0  0
    5.3313    2.1366    0.9802 C   0  0  0  0  0  0  0  0  0  0  0  0
   -1.8642    0.4373    0.2160 C   0  0  0  0  0  0  0  0  0  0  0  0
   -2.7999   -0.5425   -0.0293 C   0  0  0  0  0  0  0  0  0  0  0  0
   -4.2092   -0.2335   -0.0678 N   0  0  0  0  0  0  0  0  0  0  0  0
   -4.7251    0.8837    0.3678 N   0  0  0  0  0  0  0  0  0  0  0  0
   -6.0600    0.9085    0.2111 C   0  0  0  0  0  0  0  0  0  0  0  0
   -7.0325    1.9778    0.5676 C   0  0  0  0  0  0  0  0  0  0  0  0
   -6.3770   -0.3008   -0.3706 C   0  0  0  0  0  0  0  0  0  0  0  0
   -5.1964   -0.9861   -0.5291 C   0  0  0  0  0  0  0  0  0  0  0  0
   -5.0579   -2.3379   -1.1173 C   0  0  0  0  0  0  0  0  0  0  0  0
   -2.3632   -1.7947   -0.2319 N   0  0  0  0  0  0  0  0  0  0  0  0
   -0.9791   -4.3221   -1.3998 O   0  0  0  0  0  0  0  0  0  0  0  0
   -0.5993   -7.5847   -1.5401 H   0  0  0  0  0  0  0  0  0  0  0  0
   -1.4065   -6.5891   -2.7986 H   0  0  0  0  0  0  0  0  0  0  0  0
    0.3816   -6.7597   -2.7986 H   0  0  0  0  0  0  0  0  0  0  0  0
    1.0395   -6.2822    0.2303 H   0  0  0  0  0  0  0  0  0  0  0  0
    0.7317   -3.8199    1.2739 H   0  0  0  0  0  0  0  0  0  0  0  0
    0.2031    2.0892    0.6638 H   0  0  0  0  0  0  0  0  0  0  0  0
    2.8940    2.5284    0.0104 H   0  0  0  0  0  0  0  0  0  0  0  0
    2.7735    2.1972    1.7751 H   0  0  0  0  0  0  0  0  0  0  0  0
    4.3391    0.2799    1.5189 H   0  0  0  0  0  0  0  0  0  0  0  0
    4.4045   -0.6538   -0.5076 H   0  0  0  0  0  0  0  0  0  0  0  0
    3.7713    0.8469   -1.3000 H   0  0  0  0  0  0  0  0  0  0  0  0
    6.1069    0.0317   -1.9247 H   0  0  0  0  0  0  0  0  0  0  0  0
    5.8476    1.7895   -1.4733 H   0  0  0  0  0  0  0  0  0  0  0  0
    7.8104    0.9369   -0.5867 H   0  0  0  0  0  0  0  0  0  0  0  0
    6.9722   -0.6573    1.4787 H   0  0  0  0  0  0  0  0  0  0  0  0
    6.0938   -1.2371    0.0231 H   0  0  0  0  0  0  0  0  0  0  0  0
    7.8890   -1.1741    0.0231 H   0  0  0  0  0  0  0  0  0  0  0  0
    6.9144    1.0500    1.9041 H   0  0  0  0  0  0  0  0  0  0  0  0
    7.4275    2.4217    0.8333 H   0  0  0  0  0  0  0  0  0  0  0  0
    5.1506    2.6038    1.9596 H   0  0  0  0  0  0  0  0  0  0  0  0
    5.2476    2.8698    0.1645 H   0  0  0  0  0  0  0  0  0  0  0  0
   -2.1902    1.4740    0.3862 H   0  0  0  0  0  0  0  0  0  0  0  0
   -7.1049    2.0574    1.6624 H   0  0  0  0  0  0  0  0  0  0  0  0
   -6.6911    2.9373    0.1520 H   0  0  0  0  0  0  0  0  0  0  0  0
   -8.0200    1.7287    0.1520 H   0  0  0  0  0  0  0  0  0  0  0  0
   -7.3812   -0.6497   -0.6532 H   0  0  0  0  0  0  0  0  0  0  0  0
   -4.9816   -3.0825   -0.3112 H   0  0  0  0  0  0  0  0  0  0  0  0
   -5.9380   -2.5593   -1.7389 H   0  0  0  0  0  0  0  0  0  0  0  0
   -4.1511   -2.3762   -1.7389 H   0  0  0  0  0  0  0  0  0  0  0  0
  1  2  1  0
  2  3  2  0
  3  4  1  0
  4  5  2  0
  5  6  1  0
  6  7  2  0
  7  8  1  0
  8  9  1  0
  9 10  1  0
 10 11  2  0
 10 12  1  0
 12 13  1  0
 13 14  1  0
 14 15  1  0
 15 16  1  0
 16 17  1  0
 16 18  1  0
 18 19  1  0
  8 20  2  0
 20 21  1  0
 21 22  1  0
 22 23  1  0
 23 24  2  0
 24 25  1  0
 24 26  1  0
 26 27  2  0
 27 28  1  0
 21 29  2  0
  5 30  1  0
 30  2  1  0
 29  6  1  0
 19 13  1  0
 27 22  1  0
  1 31  1  0
  1 32  1  0
  1 33  1  0
  3 34  1  0
  4 35  1  0
  9 36  1  0
 12 37  1  0
 12 38  1  0
 13 39  1  0
 14 40  1  0
 14 41  1  0
 15 42  1  0
 15 43  1  0
 16 44  1  0
 17 45  1  0
 17 46  1  0
 17 47  1  0
 18 48  1  0
 18 49  1  0
 19 50  1  0
 19 51  1  0
 20 52  1  0
 25 53  1  0
 25 54  1  0
 25 55  1  0
 26 56  1  0
 28 57  1  0
 28 58  1  0
 28 59  1  0
M  CHG  1  16   1
M  END
>  <Original_Name>  (101) 
CHEMBL272679

>  <ROSHAMBO_ComboTanimoto>  (101) 
0.75

>  <ROSHAMBO_ShapeTanimoto>  (101) 
0.591

>  <ROSHAMBO_ColorTanimoto>  (101) 
0.158

>  <ROSHAMBO_FitTverskyCombo>  (101) 
0.966

>  <ROSHAMBO_FitTversky>  (101) 
0.696

>  <ROSHAMBO_FitColorTversky>  (101) 
0.27

>  <ROSHAMBO_RefTverskyCombo>  (101) 
1.074

>  <ROSHAMBO_RefTversky>  (101) 
0.797

>  <ROSHAMBO_RefColorTversky>  (101) 
0.277

>  <ROSHAMBO_Overlap>  (101) 
988.549

$$$$
CHEMBL17859_0_17
     RDKit          3D

 32 34  0  0  0  0  0  0  0  0999 V2000
    4.4150    1.6519    1.2092 N   0  0  0  0  0  0  0  0  0  0  0  0
    3.5962    0.6437    0.6523 C   0  0  0  0  0  0  0  0  0  0  0  0
    2.2217    0.8612    0.5033 C   0  0  0  0  0  0  0  0  0  0  0  0
    1.4402    1.9197    0.8034 N   0  0  0  0  0  0  0  0  0  0  0  0
    0.1753    1.6187    0.4601 C   0  0  0  0  0  0  0  0  0  0  0  0
    0.1482    0.3862   -0.0519 N   0  0  0  0  0  0  0  0  0  0  0  0
   -0.9851   -0.3527   -0.5526 C   0  0  0  0  0  0  0  0  0  0  0  0
   -2.3432    0.7828   -1.0430 S   0  0  0  0  0  0  0  0  0  0  0  0
   -3.6784   -0.3927   -0.6852 C   0  0  0  0  0  0  0  0  0  0  0  0
   -4.8921    0.3429   -0.1667 C   0  0  0  0  0  0  0  0  0  0  0  0
   -5.2771    1.2402   -1.1825 O   0  0  0  0  0  0  0  0  0  0  0  0
   -3.0786   -1.3428    0.2527 C   0  0  0  0  0  0  0  0  0  0  0  0
   -3.4092   -2.6525   -0.1699 O   0  0  0  0  0  0  0  0  0  0  0  0
   -1.6560   -1.2103    0.4380 C   0  0  0  0  0  0  0  0  0  0  0  0
   -1.3410   -0.7158    1.7251 O   0  0  0  0  0  0  0  0  0  0  0  0
    1.3979   -0.1041   -0.0369 C   0  0  0  0  0  0  0  0  0  0  0  0
    1.9534   -1.2666   -0.4190 N   0  0  0  0  0  0  0  0  0  0  0  0
    3.2740   -1.4809   -0.2781 C   0  0  0  0  0  0  0  0  0  0  0  0
    3.9119   -3.0433   -0.8105 Cl  0  0  0  0  0  0  0  0  0  0  0  0
    4.0823   -0.5444    0.2475 N   0  0  0  0  0  0  0  0  0  0  0  0
    5.4265    1.4917    1.3188 H   0  0  0  0  0  0  0  0  0  0  0  0
    4.0002    2.5468    1.5056 H   0  0  0  0  0  0  0  0  0  0  0  0
   -0.6951    2.2803    0.5815 H   0  0  0  0  0  0  0  0  0  0  0  0
   -0.5424   -0.9450   -1.3669 H   0  0  0  0  0  0  0  0  0  0  0  0
   -4.0604   -0.9344   -1.5631 H   0  0  0  0  0  0  0  0  0  0  0  0
   -5.7063   -0.3666    0.0429 H   0  0  0  0  0  0  0  0  0  0  0  0
   -4.6669    0.8736    0.7701 H   0  0  0  0  0  0  0  0  0  0  0  0
   -5.6325    2.0688   -0.7736 H   0  0  0  0  0  0  0  0  0  0  0  0
   -3.4992   -1.1177    1.2439 H   0  0  0  0  0  0  0  0  0  0  0  0
   -3.5545   -3.2281    0.6224 H   0  0  0  0  0  0  0  0  0  0  0  0
   -1.2791   -2.2352    0.3055 H   0  0  0  0  0  0  0  0  0  0  0  0
   -1.7239   -1.3169    2.4123 H   0  0  0  0  0  0  0  0  0  0  0  0
  1  2  1  0
  2  3  2  0
  3  4  1  0
  4  5  2  0
  5  6  1  0
  6  7  1  0
  7  8  1  0
  8  9  1  0
  9 10  1  0
 10 11  1  0
  9 12  1  0
 12 13  1  0
 12 14  1  0
 14 15  1  0
  6 16  1  0
 16 17  2  0
 17 18  1  0
 18 19  1  0
 18 20  2  0
 20  2  1  0
 16  3  1  0
 14  7  1  0
  1 21  1  0
  1 22  1  0
  5 23  1  0
  7 24  1  0
  9 25  1  0
 10 26  1  0
 10 27  1  0
 11 28  1  0
 12 29  1  0
 13 30  1  0
 14 31  1  0
 15 32  1  0
M  END
>  <Original_Name>  (102) 
CHEMBL17859

>  <ROSHAMBO_ComboTanimoto>  (102) 
0.748

>  <ROSHAMBO_ShapeTanimoto>  (102) 
0.555

>  <ROSHAMBO_ColorTanimoto>  (102) 
0.193

>  <ROSHAMBO_FitTverskyCombo>  (102) 
1.143

>  <ROSHAMBO_FitTversky>  (102) 
0.817

>  <ROSHAMBO_FitColorTversky>  (102) 
0.326

>  <ROSHAMBO_RefTverskyCombo>  (102) 
0.955

>  <ROSHAMBO_RefTversky>  (102) 
0.634

>  <ROSHAMBO_RefColorTversky>  (102) 
0.321

>  <ROSHAMBO_Overlap>  (102) 
770.329

$$$$
CHEMBL162666_0_57
     RDKit          3D

 55 56  0  0  0  0  0  0  0  0999 V2000
    6.1065    3.3146   -1.5827 C   0  0  0  0  0  0  0  0  0  0  0  0
    5.2261    4.3638   -0.9449 C   0  0  0  0  0  0  0  0  0  0  0  0
    3.8383    4.2611   -1.5531 C   0  0  0  0  0  0  0  0  0  0  0  0
    3.2314    3.0244   -1.3660 O   0  0  0  0  0  0  0  0  0  0  0  0
    2.9624    2.5185   -0.0668 C   0  0  0  0  0  0  0  0  0  0  0  0
    3.3137    3.2813    0.8529 O   0  0  0  0  0  0  0  0  0  0  0  0
    2.3328    1.2169    0.0691 C   0  0  0  0  0  0  0  0  0  0  0  0
    0.9867    1.0207    0.1131 C   0  0  0  0  0  0  0  0  0  0  0  0
    0.0254    2.1070    0.1585 C   0  0  0  0  0  0  0  0  0  0  0  0
   -0.3377    2.6679    1.4811 C   0  0  0  0  0  0  0  0  0  0  0  0
    0.7207    3.1838    2.1707 O   0  0  0  0  0  0  0  0  0  0  0  0
    0.4578   -0.2811    0.1539 C   0  0  0  0  0  0  0  0  0  0  0  0
   -0.9758   -0.5399    0.1953 C   0  0  0  0  0  0  0  0  0  0  0  0
   -1.5247   -0.6224    1.3203 O   0  0  0  0  0  0  0  0  0  0  0  0
   -1.9820   -0.7440   -1.2525 S   0  0  0  0  0  0  0  0  0  0  0  0
   -3.6889   -1.1486   -0.8430 C   0  0  0  0  0  0  0  0  0  0  0  0
   -4.4299   -0.0556   -0.1404 C   0  0  0  0  0  0  0  0  0  0  0  0
    1.3093   -1.3646    0.1514 C   0  0  0  0  0  0  0  0  0  0  0  0
    0.7333   -2.7652    0.2024 C   0  0  0  0  0  0  0  0  0  0  0  0
    0.2759   -3.0809    1.6012 C   0  0  0  0  0  0  0  0  0  0  0  0
    2.6235   -1.1661    0.1104 N   0  0  0  0  0  0  0  0  0  0  0  0
    3.1568    0.0927    0.0698 C   0  0  0  0  0  0  0  0  0  0  0  0
    4.6123    0.1476   -0.0077 C   0  0  0  0  0  0  0  0  0  0  0  0
    5.3827    0.8681    0.8569 C   0  0  0  0  0  0  0  0  0  0  0  0
    6.7743    0.9057    0.7147 C   0  0  0  0  0  0  0  0  0  0  0  0
    7.4277    0.2262   -0.2910 C   0  0  0  0  0  0  0  0  0  0  0  0
    6.6519   -0.5051   -1.1680 C   0  0  0  0  0  0  0  0  0  0  0  0
    5.2797   -0.5404   -1.0253 C   0  0  0  0  0  0  0  0  0  0  0  0
    6.6016    2.7246   -0.7973 H   0  0  0  0  0  0  0  0  0  0  0  0
    5.4915    2.6504   -2.2076 H   0  0  0  0  0  0  0  0  0  0  0  0
    6.8675    3.8050   -2.2076 H   0  0  0  0  0  0  0  0  0  0  0  0
    5.1697    4.1915    0.1401 H   0  0  0  0  0  0  0  0  0  0  0  0
    5.6432    5.3658   -1.1235 H   0  0  0  0  0  0  0  0  0  0  0  0
    3.2014    5.0322   -1.0951 H   0  0  0  0  0  0  0  0  0  0  0  0
    3.9542    4.3990   -2.6383 H   0  0  0  0  0  0  0  0  0  0  0  0
    0.4363    2.9311   -0.4432 H   0  0  0  0  0  0  0  0  0  0  0  0
   -0.9084    1.6594   -0.2126 H   0  0  0  0  0  0  0  0  0  0  0  0
   -1.0750    3.4696    1.3270 H   0  0  0  0  0  0  0  0  0  0  0  0
   -0.7372    1.8377    2.0820 H   0  0  0  0  0  0  0  0  0  0  0  0
    0.5527    3.1019    3.1429 H   0  0  0  0  0  0  0  0  0  0  0  0
   -4.2214   -1.3804   -1.7771 H   0  0  0  0  0  0  0  0  0  0  0  0
   -3.6522   -2.0007   -0.1484 H   0  0  0  0  0  0  0  0  0  0  0  0
   -4.3382   -0.1908    0.9474 H   0  0  0  0  0  0  0  0  0  0  0  0
   -4.0049    0.9180   -0.4260 H   0  0  0  0  0  0  0  0  0  0  0  0
   -5.4917   -0.0901   -0.4260 H   0  0  0  0  0  0  0  0  0  0  0  0
   -0.1227   -2.8327   -0.4851 H   0  0  0  0  0  0  0  0  0  0  0  0
    1.5083   -3.4864   -0.0964 H   0  0  0  0  0  0  0  0  0  0  0  0
    0.9577   -2.6103    2.3248 H   0  0  0  0  0  0  0  0  0  0  0  0
   -0.7423   -2.6924    1.7505 H   0  0  0  0  0  0  0  0  0  0  0  0
    0.2781   -4.1707    1.7505 H   0  0  0  0  0  0  0  0  0  0  0  0
    4.9046    1.4262    1.6754 H   0  0  0  0  0  0  0  0  0  0  0  0
    7.3662    1.4969    1.4290 H   0  0  0  0  0  0  0  0  0  0  0  0
    8.5224    0.2650   -0.3907 H   0  0  0  0  0  0  0  0  0  0  0  0
    7.1307   -1.0633   -1.9860 H   0  0  0  0  0  0  0  0  0  0  0  0
    4.6886   -1.1324   -1.7395 H   0  0  0  0  0  0  0  0  0  0  0  0
  1  2  1  0
  2  3  1  0
  3  4  1  0
  4  5  1  0
  5  6  2  0
  5  7  1  0
  7  8  2  0
  8  9  1  0
  9 10  1  0
 10 11  1  0
  8 12  1  0
 12 13  1  0
 13 14  2  0
 13 15  1  0
 15 16  1  0
 16 17  1  0
 12 18  2  0
 18 19  1  0
 19 20  1  0
 18 21  1  0
 21 22  2  0
 22 23  1  0
 23 24  2  0
 24 25  1  0
 25 26  2  0
 26 27  1  0
 27 28  2  0
 22  7  1  0
 28 23  1  0
  1 29  1  0
  1 30  1  0
  1 31  1  0
  2 32  1  0
  2 33  1  0
  3 34  1  0
  3 35  1  0
  9 36  1  0
  9 37  1  0
 10 38  1  0
 10 39  1  0
 11 40  1  0
 16 41  1  0
 16 42  1  0
 17 43  1  0
 17 44  1  0
 17 45  1  0
 19 46  1  0
 19 47  1  0
 20 48  1  0
 20 49  1  0
 20 50  1  0
 24 51  1  0
 25 52  1  0
 26 53  1  0
 27 54  1  0
 28 55  1  0
M  END
>  <Original_Name>  (103) 
CHEMBL162666

>  <ROSHAMBO_ComboTanimoto>  (103) 
0.747

>  <ROSHAMBO_ShapeTanimoto>  (103) 
0.549

>  <ROSHAMBO_ColorTanimoto>  (103) 
0.198

>  <ROSHAMBO_FitTverskyCombo>  (103) 
1.006

>  <ROSHAMBO_FitTversky>  (103) 
0.704

>  <ROSHAMBO_FitColorTversky>  (103) 
0.302

>  <ROSHAMBO_RefTverskyCombo>  (103) 
1.078

>  <ROSHAMBO_RefTversky>  (103) 
0.714

>  <ROSHAMBO_RefColorTversky>  (103) 
0.364

>  <ROSHAMBO_Overlap>  (103) 
879.816

$$$$
CHEMBL1095695_0_57
     RDKit          3D

 29 31  0  0  0  0  0  0  0  0999 V2000
   -2.3704   -2.2458   -1.4761 C   0  0  0  0  0  0  0  0  0  0  0  0
   -0.9550   -2.1139   -0.3070 C   0  0  0  0  0  0  0  0  0  0  0  0
   -0.2750   -2.0351    0.2588 C   0  0  0  0  0  0  0  0  0  0  0  0
    0.9205   -1.0539    0.2159 N   0  0  0  0  0  0  0  0  0  0  0  0
    2.1077   -1.4858   -0.1294 C   0  0  0  0  0  0  0  0  0  0  0  0
    2.3294   -2.6715   -0.4478 O   0  0  0  0  0  0  0  0  0  0  0  0
    3.2157   -0.5682   -0.1393 C   0  0  0  0  0  0  0  0  0  0  0  0
    2.8357    0.7296    0.1997 C   0  0  0  0  0  0  0  0  0  0  0  0
    1.5905    1.0677    0.5341 N   0  0  0  0  0  0  0  0  0  0  0  0
    0.5756    0.2322    0.5870 C   0  0  0  0  0  0  0  0  0  0  0  0
   -0.7401    0.6918    1.0683 C   0  0  0  0  0  0  0  0  0  0  0  0
    4.3579    1.6727    0.1928 S   0  0  0  0  0  0  0  0  0  0  0  0
    5.3833    0.2835   -0.2126 C   0  0  0  0  0  0  0  0  0  0  0  0
    4.5155   -0.6982   -0.3085 C   0  0  0  0  0  0  0  0  0  0  0  0
    5.4684   -1.9169   -0.3025 C   0  0  0  0  0  0  0  0  0  0  0  0
    6.8697   -1.4420   -0.2254 C   0  0  0  0  0  0  0  0  0  0  0  0
    6.8105    0.0007   -0.6001 C   0  0  0  0  0  0  0  0  0  0  0  0
   -3.2164   -2.3247   -2.1748 H   0  0  0  0  0  0  0  0  0  0  0  0
   -0.7503   -1.8440    1.2322 H   0  0  0  0  0  0  0  0  0  0  0  0
    0.2663   -2.9508   -0.0215 H   0  0  0  0  0  0  0  0  0  0  0  0
   -0.7477    0.6944    2.1682 H   0  0  0  0  0  0  0  0  0  0  0  0
   -0.9309    1.7098    0.6978 H   0  0  0  0  0  0  0  0  0  0  0  0
   -1.5232    0.0140    0.6978 H   0  0  0  0  0  0  0  0  0  0  0  0
    5.2472   -2.5521    0.5679 H   0  0  0  0  0  0  0  0  0  0  0  0
    5.3270   -2.5000   -1.2245 H   0  0  0  0  0  0  0  0  0  0  0  0
    7.2624   -1.5604    0.7953 H   0  0  0  0  0  0  0  0  0  0  0  0
    7.5364   -2.0135   -0.8880 H   0  0  0  0  0  0  0  0  0  0  0  0
    7.5232    0.6071   -0.0218 H   0  0  0  0  0  0  0  0  0  0  0  0
    7.0730    0.2308   -1.6432 H   0  0  0  0  0  0  0  0  0  0  0  0
  1  2  3  0
  2  3  1  0
  3  4  1  0
  4  5  1  0
  5  6  2  0
  5  7  1  0
  7  8  2  0
  8  9  1  0
  9 10  2  0
 10 11  1  0
  8 12  1  0
 12 13  1  0
 13 14  2  0
 14 15  1  0
 15 16  1  0
 16 17  1  0
 10  4  1  0
 17 13  1  0
 14  7  1  0
  1 18  1  0
  3 19  1  0
  3 20  1  0
 11 21  1  0
 11 22  1  0
 11 23  1  0
 15 24  1  0
 15 25  1  0
 16 26  1  0
 16 27  1  0
 17 28  1  0
 17 29  1  0
M  END
>  <Original_Name>  (104) 
CHEMBL1095695

>  <ROSHAMBO_ComboTanimoto>  (104) 
0.747

>  <ROSHAMBO_ShapeTanimoto>  (104) 
0.558

>  <ROSHAMBO_ColorTanimoto>  (104) 
0.188

>  <ROSHAMBO_FitTverskyCombo>  (104) 
1.267

>  <ROSHAMBO_FitTversky>  (104) 
0.887

>  <ROSHAMBO_FitColorTversky>  (104) 
0.379

>  <ROSHAMBO_RefTverskyCombo>  (104) 
0.873

>  <ROSHAMBO_RefTversky>  (104) 
0.601

>  <ROSHAMBO_RefColorTversky>  (104) 
0.273

>  <ROSHAMBO_Overlap>  (104) 
726.296

$$$$
CHEMBL17859_0_93
     RDKit          3D

 32 34  0  0  0  0  0  0  0  0999 V2000
    4.5245    1.9802   -0.5672 N   0  0  0  0  0  0  0  0  0  0  0  0
    3.7314    0.8299   -0.3557 C   0  0  0  0  0  0  0  0  0  0  0  0
    2.4515    1.0063    0.1621 C   0  0  0  0  0  0  0  0  0  0  0  0
    1.7511    2.1036    0.5322 N   0  0  0  0  0  0  0  0  0  0  0  0
    0.5390    1.7256    0.9753 C   0  0  0  0  0  0  0  0  0  0  0  0
    0.4476    0.3954    0.8958 N   0  0  0  0  0  0  0  0  0  0  0  0
   -0.7032   -0.3643    1.2817 C   0  0  0  0  0  0  0  0  0  0  0  0
   -2.2570    0.5416    0.8938 S   0  0  0  0  0  0  0  0  0  0  0  0
   -3.2665   -0.9134    0.4172 C   0  0  0  0  0  0  0  0  0  0  0  0
   -3.7067   -0.8159   -1.0217 C   0  0  0  0  0  0  0  0  0  0  0  0
   -4.4715    0.3713   -1.1125 O   0  0  0  0  0  0  0  0  0  0  0  0
   -2.3286   -2.0329    0.7090 C   0  0  0  0  0  0  0  0  0  0  0  0
   -2.6391   -3.2020    0.0307 O   0  0  0  0  0  0  0  0  0  0  0  0
   -0.9170   -1.5926    0.4263 C   0  0  0  0  0  0  0  0  0  0  0  0
   -0.7830   -1.3642   -0.9175 O   0  0  0  0  0  0  0  0  0  0  0  0
    1.6093   -0.0595    0.4003 C   0  0  0  0  0  0  0  0  0  0  0  0
    2.0444   -1.3241    0.1198 N   0  0  0  0  0  0  0  0  0  0  0  0
    3.2833   -1.4639   -0.3787 C   0  0  0  0  0  0  0  0  0  0  0  0
    3.8345   -3.0948   -0.7365 Cl  0  0  0  0  0  0  0  0  0  0  0  0
    4.1136   -0.4262   -0.6146 N   0  0  0  0  0  0  0  0  0  0  0  0
    5.4764    1.8863   -0.9491 H   0  0  0  0  0  0  0  0  0  0  0  0
    4.1505    2.9126   -0.3396 H   0  0  0  0  0  0  0  0  0  0  0  0
   -0.2478    2.4008    1.3427 H   0  0  0  0  0  0  0  0  0  0  0  0
   -0.5180   -0.5783    2.3447 H   0  0  0  0  0  0  0  0  0  0  0  0
   -4.2206   -1.0276    0.9526 H   0  0  0  0  0  0  0  0  0  0  0  0
   -2.8323   -0.7599   -1.6866 H   0  0  0  0  0  0  0  0  0  0  0  0
   -4.2903   -1.6971   -1.3266 H   0  0  0  0  0  0  0  0  0  0  0  0
   -4.6823    0.6985   -0.2022 H   0  0  0  0  0  0  0  0  0  0  0  0
   -2.4313   -2.2788    1.7762 H   0  0  0  0  0  0  0  0  0  0  0  0
   -2.8302   -3.9214    0.6834 H   0  0  0  0  0  0  0  0  0  0  0  0
   -0.1530   -2.3438    0.6752 H   0  0  0  0  0  0  0  0  0  0  0  0
   -0.2872   -0.5194   -1.0608 H   0  0  0  0  0  0  0  0  0  0  0  0
  1  2  1  0
  2  3  2  0
  3  4  1  0
  4  5  2  0
  5  6  1  0
  6  7  1  0
  7  8  1  0
  8  9  1  0
  9 10  1  0
 10 11  1  0
  9 12  1  0
 12 13  1  0
 12 14  1  0
 14 15  1  0
  6 16  1  0
 16 17  2  0
 17 18  1  0
 18 19  1  0
 18 20  2  0
 20  2  1  0
 16  3  1  0
 14  7  1  0
  1 21  1  0
  1 22  1  0
  5 23  1  0
  7 24  1  0
  9 25  1  0
 10 26  1  0
 10 27  1  0
 11 28  1  0
 12 29  1  0
 13 30  1  0
 14 31  1  0
 15 32  1  0
M  END
>  <Original_Name>  (105) 
CHEMBL17859

>  <ROSHAMBO_ComboTanimoto>  (105) 
0.746

>  <ROSHAMBO_ShapeTanimoto>  (105) 
0.545

>  <ROSHAMBO_ColorTanimoto>  (105) 
0.202

>  <ROSHAMBO_FitTverskyCombo>  (105) 
1.143

>  <ROSHAMBO_FitTversky>  (105) 
0.806

>  <ROSHAMBO_FitColorTversky>  (105) 
0.337

>  <ROSHAMBO_RefTverskyCombo>  (105) 
0.961

>  <ROSHAMBO_RefTversky>  (105) 
0.627

>  <ROSHAMBO_RefColorTversky>  (105) 
0.334

>  <ROSHAMBO_Overlap>  (105) 
762.306

$$$$
CHEMBL508786_0_46
     RDKit          3D

 46 48  0  0  0  0  0  0  0  0999 V2000
   -5.6377    0.1554   -0.6721 C   0  0  0  0  0  0  0  0  0  0  0  0
   -5.1300   -0.7014   -1.6251 O   0  0  0  0  0  0  0  0  0  0  0  0
   -3.7661   -0.8307   -1.5706 C   0  0  0  0  0  0  0  0  0  0  0  0
   -3.3551   -1.3878   -0.2227 C   0  0  1  0  0  0  0  0  0  0  0  0
   -3.9744   -2.7099    0.0554 C   0  0  0  0  0  0  0  0  0  0  0  0
   -2.8792   -3.6248    0.4728 C   0  0  0  0  0  0  0  0  0  0  0  0
   -1.6752   -3.0089   -0.2034 C   0  0  0  0  0  0  0  0  0  0  0  0
   -1.9401   -1.5654   -0.1227 N   0  0  0  0  0  0  0  0  0  0  0  0
   -0.9066   -0.5881    0.0286 C   0  0  0  0  0  0  0  0  0  0  0  0
   -1.1807    0.7488    0.1604 C   0  0  0  0  0  0  0  0  0  0  0  0
   -0.1708    1.6835    0.3037 C   0  0  0  0  0  0  0  0  0  0  0  0
   -0.4803    3.0739    0.4397 N   0  0  0  0  0  0  0  0  0  0  0  0
    0.5237    4.0561    0.5878 C   0  0  0  0  0  0  0  0  0  0  0  0
    0.2153    5.5085    0.7306 C   0  0  0  0  0  0  0  0  0  0  0  0
    1.7203    3.6775    0.5981 O   0  0  0  0  0  0  0  0  0  0  0  0
    1.0852    1.2322    0.3088 N   0  0  0  0  0  0  0  0  0  0  0  0
    1.3995   -0.0754    0.1820 C   0  0  0  0  0  0  0  0  0  0  0  0
    2.7975   -0.5019    0.1958 C   0  0  0  0  0  0  0  0  0  0  0  0
    3.2365   -1.7147    0.6969 C   0  0  0  0  0  0  0  0  0  0  0  0
    4.6007   -1.7434    0.5319 C   0  0  0  0  0  0  0  0  0  0  0  0
    4.9446   -0.5521   -0.0615 C   0  0  0  0  0  0  0  0  0  0  0  0
    6.3544   -0.1990   -0.4082 C   0  0  0  0  0  0  0  0  0  0  0  0
    3.8560    0.1233   -0.2303 O   0  0  0  0  0  0  0  0  0  0  0  0
    0.3908   -0.9457    0.0456 N   0  0  0  0  0  0  0  0  0  0  0  0
   -5.4072   -0.2336    0.3307 H   0  0  0  0  0  0  0  0  0  0  0  0
   -5.1828    1.1496   -0.7933 H   0  0  0  0  0  0  0  0  0  0  0  0
   -6.7282    0.2339   -0.7933 H   0  0  0  0  0  0  0  0  0  0  0  0
   -3.4323   -1.5144   -2.3650 H   0  0  0  0  0  0  0  0  0  0  0  0
   -3.3024    0.1568   -1.7112 H   0  0  0  0  0  0  0  0  0  0  0  0
   -3.7036   -0.6422    0.5072 H   0  0  0  0  0  0  0  0  0  0  0  0
   -4.7167   -2.6170    0.8618 H   0  0  0  0  0  0  0  0  0  0  0  0
   -4.4901   -3.0966   -0.8359 H   0  0  0  0  0  0  0  0  0  0  0  0
   -2.7616   -3.6336    1.5664 H   0  0  0  0  0  0  0  0  0  0  0  0
   -3.0517   -4.6756    0.1970 H   0  0  0  0  0  0  0  0  0  0  0  0
   -0.7486   -3.2695    0.3291 H   0  0  0  0  0  0  0  0  0  0  0  0
   -1.5349   -3.3626   -1.2355 H   0  0  0  0  0  0  0  0  0  0  0  0
   -2.2277    1.0860    0.1520 H   0  0  0  0  0  0  0  0  0  0  0  0
   -1.4674    3.3680    0.4293 H   0  0  0  0  0  0  0  0  0  0  0  0
    0.1601    5.7685    1.7980 H   0  0  0  0  0  0  0  0  0  0  0  0
    1.0078    6.1006    0.2495 H   0  0  0  0  0  0  0  0  0  0  0  0
   -0.7494    5.7276    0.2495 H   0  0  0  0  0  0  0  0  0  0  0  0
    2.6132   -2.5043    1.1419 H   0  0  0  0  0  0  0  0  0  0  0  0
    5.2822   -2.5581    0.8180 H   0  0  0  0  0  0  0  0  0  0  0  0
    6.9338   -0.0539    0.5155 H   0  0  0  0  0  0  0  0  0  0  0  0
    6.8018   -1.0128   -0.9977 H   0  0  0  0  0  0  0  0  0  0  0  0
    6.3654    0.7297   -0.9977 H   0  0  0  0  0  0  0  0  0  0  0  0
  1  2  1  0
  2  3  1  0
  3  4  1  0
  4  5  1  0
  5  6  1  0
  6  7  1  0
  7  8  1  0
  8  9  1  0
  9 10  2  0
 10 11  1  0
 11 12  1  0
 12 13  1  0
 13 14  1  0
 13 15  2  0
 11 16  2  0
 16 17  1  0
 17 18  1  0
 18 19  2  0
 19 20  1  0
 20 21  2  0
 21 22  1  0
 21 23  1  0
 17 24  2  0
  8  4  1  0
 24  9  1  0
 23 18  1  0
  1 25  1  0
  1 26  1  0
  1 27  1  0
  3 28  1  0
  3 29  1  0
  4 30  1  1
  5 31  1  0
  5 32  1  0
  6 33  1  0
  6 34  1  0
  7 35  1  0
  7 36  1  0
 10 37  1  0
 12 38  1  0
 14 39  1  0
 14 40  1  0
 14 41  1  0
 19 42  1  0
 20 43  1  0
 22 44  1  0
 22 45  1  0
 22 46  1  0
M  END
>  <Original_Name>  (106) 
CHEMBL508786

>  <ROSHAMBO_ComboTanimoto>  (106) 
0.744

>  <ROSHAMBO_ShapeTanimoto>  (106) 
0.531

>  <ROSHAMBO_ColorTanimoto>  (106) 
0.213

>  <ROSHAMBO_FitTverskyCombo>  (106) 
1.116

>  <ROSHAMBO_FitTversky>  (106) 
0.722

>  <ROSHAMBO_FitColorTversky>  (106) 
0.394

>  <ROSHAMBO_RefTverskyCombo>  (106) 
0.985

>  <ROSHAMBO_RefTversky>  (106) 
0.667

>  <ROSHAMBO_RefColorTversky>  (106) 
0.317

>  <ROSHAMBO_Overlap>  (106) 
817.76

$$$$
CHEMBL190_0_70
     RDKit          3D

 21 22  0  0  0  0  0  0  0  0999 V2000
    2.7060   -3.5292   -0.3714 C   0  0  0  0  0  0  0  0  0  0  0  0
    2.7597   -2.1009   -0.1591 N   0  0  0  0  0  0  0  0  0  0  0  0
    1.6136   -1.4228    0.0287 C   0  0  0  0  0  0  0  0  0  0  0  0
    1.6588   -0.0632    0.2311 C   0  0  0  0  0  0  0  0  0  0  0  0
    0.4010    0.3795    0.3916 N   0  0  0  0  0  0  0  0  0  0  0  0
   -0.3947   -0.6909    0.2887 C   0  0  0  0  0  0  0  0  0  0  0  0
    0.3114   -1.8090    0.0669 N   0  0  0  0  0  0  0  0  0  0  0  0
    2.8532    0.6222    0.2462 C   0  0  0  0  0  0  0  0  0  0  0  0
    2.9029    1.8856    0.4337 O   0  0  0  0  0  0  0  0  0  0  0  0
    3.9757   -0.0942    0.0543 N   0  0  0  0  0  0  0  0  0  0  0  0
    5.2371    0.6296    0.0702 C   0  0  0  0  0  0  0  0  0  0  0  0
    3.9185   -1.4367   -0.1447 C   0  0  0  0  0  0  0  0  0  0  0  0
    4.9847   -2.0444   -0.3159 O   0  0  0  0  0  0  0  0  0  0  0  0
    2.6867   -4.0438    0.6006 H   0  0  0  0  0  0  0  0  0  0  0  0
    1.7978   -3.7818   -0.9382 H   0  0  0  0  0  0  0  0  0  0  0  0
    3.5928   -3.8492   -0.9382 H   0  0  0  0  0  0  0  0  0  0  0  0
   -1.4908   -0.6579    0.3751 H   0  0  0  0  0  0  0  0  0  0  0  0
   -0.0572   -2.7637   -0.0502 H   0  0  0  0  0  0  0  0  0  0  0  0
    5.5453    0.8064    1.1113 H   0  0  0  0  0  0  0  0  0  0  0  0
    6.0070    0.0358   -0.4443 H   0  0  0  0  0  0  0  0  0  0  0  0
    5.1130    1.5939   -0.4443 H   0  0  0  0  0  0  0  0  0  0  0  0
  1  2  1  0
  2  3  1  0
  3  4  2  0
  4  5  1  0
  5  6  2  0
  6  7  1  0
  4  8  1  0
  8  9  2  0
  8 10  1  0
 10 11  1  0
 10 12  1  0
 12 13  2  0
 12  2  1  0
  7  3  1  0
  1 14  1  0
  1 15  1  0
  1 16  1  0
  6 17  1  0
  7 18  1  0
 11 19  1  0
 11 20  1  0
 11 21  1  0
M  END
>  <Original_Name>  (107) 
CHEMBL190

>  <ROSHAMBO_ComboTanimoto>  (107) 
0.743

>  <ROSHAMBO_ShapeTanimoto>  (107) 
0.446

>  <ROSHAMBO_ColorTanimoto>  (107) 
0.297

>  <ROSHAMBO_FitTverskyCombo>  (107) 
1.409

>  <ROSHAMBO_FitTversky>  (107) 
0.858

>  <ROSHAMBO_FitColorTversky>  (107) 
0.55

>  <ROSHAMBO_RefTverskyCombo>  (107) 
0.873

>  <ROSHAMBO_RefTversky>  (107) 
0.482

>  <ROSHAMBO_RefColorTversky>  (107) 
0.391

>  <ROSHAMBO_Overlap>  (107) 
578.407

$$$$
CHEMBL1095999_0_5
     RDKit          3D

 29 32  0  0  0  0  0  0  0  0999 V2000
   -1.1035   -4.8105   -0.7669 N   0  0  0  0  0  0  0  0  0  0  0  0
   -0.9111   -3.3997   -0.5015 C   0  0  0  0  0  0  0  0  0  0  0  0
   -1.9679   -2.5955   -0.3751 N   0  0  0  0  0  0  0  0  0  0  0  0
   -1.8831   -1.2461   -0.1241 C   0  0  0  0  0  0  0  0  0  0  0  0
   -3.1018   -0.4657   -0.1283 C   0  0  0  0  0  0  0  0  0  0  0  0
   -3.4444    0.8207   -0.3747 C   0  0  0  0  0  0  0  0  0  0  0  0
   -4.8368    0.9806   -0.2203 C   0  0  0  0  0  0  0  0  0  0  0  0
   -5.2603   -0.2748    0.1217 C   0  0  0  0  0  0  0  0  0  0  0  0
   -4.2714   -1.0877    0.1710 O   0  0  0  0  0  0  0  0  0  0  0  0
   -0.6143   -0.7490   -0.0016 C   0  0  0  0  0  0  0  0  0  0  0  0
   -0.1005    0.5539    0.2958 C   0  0  0  0  0  0  0  0  0  0  0  0
   -0.7406    1.6091    0.5020 O   0  0  0  0  0  0  0  0  0  0  0  0
    1.3746    0.4384    0.3257 C   0  0  0  0  0  0  0  0  0  0  0  0
    2.3443    1.3742    0.5587 C   0  0  0  0  0  0  0  0  0  0  0  0
    3.6629    1.0218    0.5326 C   0  0  0  0  0  0  0  0  0  0  0  0
    4.0679   -0.2881    0.2709 C   0  0  0  0  0  0  0  0  0  0  0  0
    3.0771   -1.2180    0.0383 C   0  0  0  0  0  0  0  0  0  0  0  0
    1.7391   -0.8511    0.0668 C   0  0  0  0  0  0  0  0  0  0  0  0
    0.5009   -1.5918   -0.1345 C   0  0  0  0  0  0  0  0  0  0  0  0
    0.3231   -2.8991   -0.3824 N   0  0  0  0  0  0  0  0  0  0  0  0
   -0.2880   -5.4320   -0.8646 H   0  0  0  0  0  0  0  0  0  0  0  0
   -2.0558   -5.1922   -0.8579 H   0  0  0  0  0  0  0  0  0  0  0  0
   -2.7424    1.6205   -0.6534 H   0  0  0  0  0  0  0  0  0  0  0  0
   -5.4374    1.8937   -0.3447 H   0  0  0  0  0  0  0  0  0  0  0  0
   -6.3060   -0.5484    0.3261 H   0  0  0  0  0  0  0  0  0  0  0  0
    2.0603    2.4160    0.7683 H   0  0  0  0  0  0  0  0  0  0  0  0
    4.4264    1.7904    0.7228 H   0  0  0  0  0  0  0  0  0  0  0  0
    5.1319   -0.5664    0.2511 H   0  0  0  0  0  0  0  0  0  0  0  0
    3.3501   -2.2626   -0.1722 H   0  0  0  0  0  0  0  0  0  0  0  0
  1  2  1  0
  2  3  2  0
  3  4  1  0
  4  5  1  0
  5  6  2  0
  6  7  1  0
  7  8  2  0
  8  9  1  0
  4 10  2  0
 10 11  1  0
 11 12  2  0
 11 13  1  0
 13 14  2  0
 14 15  1  0
 15 16  2  0
 16 17  1  0
 17 18  2  0
 18 19  1  0
 19 20  2  0
 20  2  1  0
  9  5  1  0
 19 10  1  0
 18 13  1  0
  1 21  1  0
  1 22  1  0
  6 23  1  0
  7 24  1  0
  8 25  1  0
 14 26  1  0
 15 27  1  0
 16 28  1  0
 17 29  1  0
M  END
>  <Original_Name>  (108) 
CHEMBL1095999

>  <ROSHAMBO_ComboTanimoto>  (108) 
0.734

>  <ROSHAMBO_ShapeTanimoto>  (108) 
0.578

>  <ROSHAMBO_ColorTanimoto>  (108) 
0.156

>  <ROSHAMBO_FitTverskyCombo>  (108) 
1.158

>  <ROSHAMBO_FitTversky>  (108) 
0.81

>  <ROSHAMBO_FitColorTversky>  (108) 
0.348

>  <ROSHAMBO_RefTverskyCombo>  (108) 
0.889

>  <ROSHAMBO_RefTversky>  (108) 
0.668

>  <ROSHAMBO_RefColorTversky>  (108) 
0.22

>  <ROSHAMBO_Overlap>  (108) 
814.663

$$$$
CHEMBL483242_0_47
     RDKit          3D

 54 56  0  0  0  0  0  0  0  0999 V2000
   -3.3755    0.7536   -3.8794 C   0  0  0  0  0  0  0  0  0  0  0  0
   -4.6424    0.0894   -3.4270 C   0  0  0  0  0  0  0  0  0  0  0  0
   -4.6451   -0.2265   -2.0136 N   0  0  0  0  0  0  0  0  0  0  0  0
   -4.1710   -1.4621   -1.5115 C   0  0  0  0  0  0  0  0  0  0  0  0
   -3.7006   -2.2928   -2.3571 O   0  0  0  0  0  0  0  0  0  0  0  0
   -4.1937   -1.8266   -0.0943 C   0  0  0  0  0  0  0  0  0  0  0  0
   -4.2274   -0.5890    0.7758 C   0  0  0  0  0  0  0  0  0  0  0  0
   -2.8300   -0.1704    0.7341 N   0  0  0  0  0  0  0  0  0  0  0  0
   -2.0746   -1.1708    0.4262 C   0  0  0  0  0  0  0  0  0  0  0  0
   -0.6021   -1.1755    0.2791 C   0  0  0  0  0  0  0  0  0  0  0  0
    0.0288   -0.0498    0.4787 C   0  0  0  0  0  0  0  0  0  0  0  0
    1.4586    0.0551    0.3614 C   0  0  0  0  0  0  0  0  0  0  0  0
    2.0520    1.2946    0.5915 C   0  0  0  0  0  0  0  0  0  0  0  0
    3.3969    1.4764    0.5005 C   0  0  0  0  0  0  0  0  0  0  0  0
    4.1831    0.3939    0.1702 C   0  0  0  0  0  0  0  0  0  0  0  0
    5.5688    0.5095    0.0597 O   0  0  0  0  0  0  0  0  0  0  0  0
    6.2818    1.6901    0.2643 C   0  0  0  0  0  0  0  0  0  0  0  0
    3.6093   -0.8357   -0.0595 C   0  0  0  0  0  0  0  0  0  0  0  0
    4.4220   -1.9006   -0.3884 O   0  0  0  0  0  0  0  0  0  0  0  0
    3.8667   -3.1957   -0.6350 C   0  0  0  0  0  0  0  0  0  0  0  0
    2.2207   -1.0342    0.0319 C   0  0  0  0  0  0  0  0  0  0  0  0
   -2.8586   -2.3380    0.2304 N   0  0  0  0  0  0  0  0  0  0  0  0
   -2.4508   -3.7207    0.3251 C   0  0  0  0  0  0  0  0  0  0  0  0
   -5.1330    0.4042    0.2910 N   0  0  0  0  0  0  0  0  0  0  0  0
   -6.0718    1.1203    1.1392 C   0  0  0  0  0  0  0  0  0  0  0  0
   -7.4004    0.4197    1.2436 C   0  0  0  0  0  0  0  0  0  0  0  0
   -5.1388    0.7320   -1.0910 C   0  0  0  0  0  0  0  0  0  0  0  0
   -5.5799    1.8667   -1.4925 O   0  0  0  0  0  0  0  0  0  0  0  0
   -2.7889    1.0611   -3.0011 H   0  0  0  0  0  0  0  0  0  0  0  0
   -2.7873    0.0479   -4.4843 H   0  0  0  0  0  0  0  0  0  0  0  0
   -3.6213    1.6388   -4.4843 H   0  0  0  0  0  0  0  0  0  0  0  0
   -5.4855    0.7642   -3.6364 H   0  0  0  0  0  0  0  0  0  0  0  0
   -4.7287   -0.8602   -3.9754 H   0  0  0  0  0  0  0  0  0  0  0  0
   -5.0456   -2.5034    0.0676 H   0  0  0  0  0  0  0  0  0  0  0  0
   -4.6014   -0.7663    1.7949 H   0  0  0  0  0  0  0  0  0  0  0  0
   -0.0589   -2.0937    0.0112 H   0  0  0  0  0  0  0  0  0  0  0  0
   -0.5511    0.8462    0.7449 H   0  0  0  0  0  0  0  0  0  0  0  0
    1.4141    2.1513    0.8545 H   0  0  0  0  0  0  0  0  0  0  0  0
    3.8459    2.4633    0.6861 H   0  0  0  0  0  0  0  0  0  0  0  0
    6.3906    1.8703    1.3439 H   0  0  0  0  0  0  0  0  0  0  0  0
    7.2774    1.6014   -0.1949 H   0  0  0  0  0  0  0  0  0  0  0  0
    5.7398    2.5300   -0.1949 H   0  0  0  0  0  0  0  0  0  0  0  0
    3.6539   -3.6919    0.3234 H   0  0  0  0  0  0  0  0  0  0  0  0
    2.9341   -3.0915   -1.2090 H   0  0  0  0  0  0  0  0  0  0  0  0
    4.5850   -3.7994   -1.2090 H   0  0  0  0  0  0  0  0  0  0  0  0
    1.7671   -2.0191   -0.1527 H   0  0  0  0  0  0  0  0  0  0  0  0
   -2.3665   -4.0064    1.3840 H   0  0  0  0  0  0  0  0  0  0  0  0
   -3.1991   -4.3583   -0.1683 H   0  0  0  0  0  0  0  0  0  0  0  0
   -1.4762   -3.8501   -0.1683 H   0  0  0  0  0  0  0  0  0  0  0  0
   -5.6398    1.2104    2.1468 H   0  0  0  0  0  0  0  0  0  0  0  0
   -6.2477    2.1072    0.6864 H   0  0  0  0  0  0  0  0  0  0  0  0
   -7.6604    0.2826    2.3037 H   0  0  0  0  0  0  0  0  0  0  0  0
   -8.1747    1.0268    0.7518 H   0  0  0  0  0  0  0  0  0  0  0  0
   -7.3369   -0.5622    0.7518 H   0  0  0  0  0  0  0  0  0  0  0  0
  1  2  1  0
  2  3  1  0
  3  4  1  0
  4  5  2  0
  4  6  1  0
  6  7  1  0
  7  8  1  0
  8  9  2  0
  9 10  1  0
 10 11  2  3
 11 12  1  0
 12 13  2  0
 13 14  1  0
 14 15  2  0
 15 16  1  0
 16 17  1  0
 15 18  1  0
 18 19  1  0
 19 20  1  0
 18 21  2  0
  9 22  1  0
 22 23  1  0
  7 24  1  0
 24 25  1  0
 25 26  1  0
 24 27  1  0
 27 28  2  0
 27  3  1  0
 22  6  1  0
 21 12  1  0
  1 29  1  0
  1 30  1  0
  1 31  1  0
  2 32  1  0
  2 33  1  0
  6 34  1  0
  7 35  1  0
 10 36  1  0
 11 37  1  0
 13 38  1  0
 14 39  1  0
 17 40  1  0
 17 41  1  0
 17 42  1  0
 20 43  1  0
 20 44  1  0
 20 45  1  0
 21 46  1  0
 23 47  1  0
 23 48  1  0
 23 49  1  0
 25 50  1  0
 25 51  1  0
 26 52  1  0
 26 53  1  0
 26 54  1  0
M  END
>  <Original_Name>  (109) 
CHEMBL483242

>  <ROSHAMBO_ComboTanimoto>  (109) 
0.724

>  <ROSHAMBO_ShapeTanimoto>  (109) 
0.616

>  <ROSHAMBO_ColorTanimoto>  (109) 
0.108

>  <ROSHAMBO_FitTverskyCombo>  (109) 
0.936

>  <ROSHAMBO_FitTversky>  (109) 
0.743

>  <ROSHAMBO_FitColorTversky>  (109) 
0.194

>  <ROSHAMBO_RefTverskyCombo>  (109) 
0.979

>  <ROSHAMBO_RefTversky>  (109) 
0.784

>  <ROSHAMBO_RefColorTversky>  (109) 
0.195

>  <ROSHAMBO_Overlap>  (109) 
967.162

$$$$
CHEMBL17859_0_99
     RDKit          3D

 32 34  0  0  0  0  0  0  0  0999 V2000
    4.5623    1.7951   -0.4079 N   0  0  0  0  0  0  0  0  0  0  0  0
    3.5760    0.7881   -0.2176 C   0  0  0  0  0  0  0  0  0  0  0  0
    2.2629    1.0758    0.0953 C   0  0  0  0  0  0  0  0  0  0  0  0
    1.6167    2.2420    0.2866 N   0  0  0  0  0  0  0  0  0  0  0  0
    0.3172    1.9953    0.5769 C   0  0  0  0  0  0  0  0  0  0  0  0
    0.1246    0.6618    0.5726 N   0  0  0  0  0  0  0  0  0  0  0  0
   -1.0791   -0.0836    0.8226 C   0  0  0  0  0  0  0  0  0  0  0  0
   -2.5387    1.0417    0.8134 S   0  0  0  0  0  0  0  0  0  0  0  0
   -3.7430   -0.2035    0.2422 C   0  0  0  0  0  0  0  0  0  0  0  0
   -4.4851    0.2266   -0.9790 C   0  0  0  0  0  0  0  0  0  0  0  0
   -5.2090    1.3803   -0.8172 O   0  0  0  0  0  0  0  0  0  0  0  0
   -2.8684   -1.4102    0.0165 C   0  0  0  0  0  0  0  0  0  0  0  0
   -2.8308   -2.1091    1.2462 O   0  0  0  0  0  0  0  0  0  0  0  0
   -1.4899   -0.9395   -0.3606 C   0  0  0  0  0  0  0  0  0  0  0  0
   -1.5552   -0.1454   -1.4733 O   0  0  0  0  0  0  0  0  0  0  0  0
    1.3037    0.1001    0.2805 C   0  0  0  0  0  0  0  0  0  0  0  0
    1.7287   -1.1873    0.1357 N   0  0  0  0  0  0  0  0  0  0  0  0
    2.9895   -1.5022   -0.1661 C   0  0  0  0  0  0  0  0  0  0  0  0
    3.4279   -3.2064   -0.3293 Cl  0  0  0  0  0  0  0  0  0  0  0  0
    3.8895   -0.5197   -0.3375 N   0  0  0  0  0  0  0  0  0  0  0  0
    5.5302    1.5306   -0.6404 H   0  0  0  0  0  0  0  0  0  0  0  0
    4.3087    2.7889   -0.3132 H   0  0  0  0  0  0  0  0  0  0  0  0
   -0.4513    2.7553    0.7816 H   0  0  0  0  0  0  0  0  0  0  0  0
   -0.8607   -0.6307    1.7515 H   0  0  0  0  0  0  0  0  0  0  0  0
   -4.5563   -0.3899    0.9589 H   0  0  0  0  0  0  0  0  0  0  0  0
   -3.7565    0.3866   -1.7875 H   0  0  0  0  0  0  0  0  0  0  0  0
   -5.2068   -0.5710   -1.2089 H   0  0  0  0  0  0  0  0  0  0  0  0
   -5.3246    1.5646    0.1486 H   0  0  0  0  0  0  0  0  0  0  0  0
   -3.2477   -2.0584   -0.7872 H   0  0  0  0  0  0  0  0  0  0  0  0
   -2.8656   -1.4620    1.9947 H   0  0  0  0  0  0  0  0  0  0  0  0
   -0.7994   -1.7680   -0.5773 H   0  0  0  0  0  0  0  0  0  0  0  0
   -1.6332    0.8024   -1.1982 H   0  0  0  0  0  0  0  0  0  0  0  0
  1  2  1  0
  2  3  2  0
  3  4  1  0
  4  5  2  0
  5  6  1  0
  6  7  1  0
  7  8  1  0
  8  9  1  0
  9 10  1  0
 10 11  1  0
  9 12  1  0
 12 13  1  0
 12 14  1  0
 14 15  1  0
  6 16  1  0
 16 17  2  0
 17 18  1  0
 18 19  1  0
 18 20  2  0
 20  2  1  0
 16  3  1  0
 14  7  1  0
  1 21  1  0
  1 22  1  0
  5 23  1  0
  7 24  1  0
  9 25  1  0
 10 26  1  0
 10 27  1  0
 11 28  1  0
 12 29  1  0
 13 30  1  0
 14 31  1  0
 15 32  1  0
M  END
>  <Original_Name>  (110) 
CHEMBL17859

>  <ROSHAMBO_ComboTanimoto>  (110) 
0.723

>  <ROSHAMBO_ShapeTanimoto>  (110) 
0.54

>  <ROSHAMBO_ColorTanimoto>  (110) 
0.182

>  <ROSHAMBO_FitTverskyCombo>  (110) 
1.113

>  <ROSHAMBO_FitTversky>  (110) 
0.802

>  <ROSHAMBO_FitColorTversky>  (110) 
0.311

>  <ROSHAMBO_RefTverskyCombo>  (110) 
0.929

>  <ROSHAMBO_RefTversky>  (110) 
0.624

>  <ROSHAMBO_RefColorTversky>  (110) 
0.306

>  <ROSHAMBO_Overlap>  (110) 
757.965

$$$$
CHEMBL483242_0_49
     RDKit          3D

 54 56  0  0  0  0  0  0  0  0999 V2000
    6.5764   -0.4854    1.2391 C   0  0  0  0  0  0  0  0  0  0  0  0
    6.0467   -0.4743   -0.1876 C   0  0  0  0  0  0  0  0  0  0  0  0
    4.6447   -0.1110   -0.1044 N   0  0  0  0  0  0  0  0  0  0  0  0
    3.6529   -1.1250    0.0406 C   0  0  0  0  0  0  0  0  0  0  0  0
    3.9760   -2.2587    0.4250 O   0  0  0  0  0  0  0  0  0  0  0  0
    2.2918   -0.7546   -0.2800 C   0  0  0  0  0  0  0  0  0  0  0  0
    2.0204    0.5248    0.5431 C   0  0  0  0  0  0  0  0  0  0  0  0
    0.6194    0.6012    0.4636 N   0  0  0  0  0  0  0  0  0  0  0  0
    0.1379   -0.5881    0.3122 C   0  0  0  0  0  0  0  0  0  0  0  0
   -1.2924   -0.9481    0.1902 C   0  0  0  0  0  0  0  0  0  0  0  0
   -2.1855    0.0180    0.2343 C   0  0  0  0  0  0  0  0  0  0  0  0
   -3.6028   -0.2402    0.1234 C   0  0  0  0  0  0  0  0  0  0  0  0
   -4.0895   -1.5336   -0.0366 C   0  0  0  0  0  0  0  0  0  0  0  0
   -5.4655   -1.7560   -0.1413 C   0  0  0  0  0  0  0  0  0  0  0  0
   -6.3245   -0.6832   -0.0841 C   0  0  0  0  0  0  0  0  0  0  0  0
   -7.7113   -0.8988   -0.1888 O   0  0  0  0  0  0  0  0  0  0  0  0
   -8.2189   -2.2171   -0.3522 C   0  0  0  0  0  0  0  0  0  0  0  0
   -5.8184    0.5870    0.0747 C   0  0  0  0  0  0  0  0  0  0  0  0
   -6.7691    1.6186    0.1222 O   0  0  0  0  0  0  0  0  0  0  0  0
   -6.4174    2.9672    0.2797 C   0  0  0  0  0  0  0  0  0  0  0  0
   -4.4770    0.8377    0.1802 C   0  0  0  0  0  0  0  0  0  0  0  0
    1.2202   -1.5303    0.2511 N   0  0  0  0  0  0  0  0  0  0  0  0
    1.2170   -2.8987    0.6283 C   0  0  0  0  0  0  0  0  0  0  0  0
    2.8156    1.5219   -0.0735 N   0  0  0  0  0  0  0  0  0  0  0  0
    2.2442    2.7348   -0.5840 C   0  0  0  0  0  0  0  0  0  0  0  0
    2.2441    3.7805    0.5155 C   0  0  0  0  0  0  0  0  0  0  0  0
    4.2137    1.2709   -0.1648 C   0  0  0  0  0  0  0  0  0  0  0  0
    5.0590    2.1879   -0.2928 O   0  0  0  0  0  0  0  0  0  0  0  0
    5.7320   -0.4676    1.9439 H   0  0  0  0  0  0  0  0  0  0  0  0
    7.1711   -1.3963    1.4023 H   0  0  0  0  0  0  0  0  0  0  0  0
    7.2090    0.3996    1.4023 H   0  0  0  0  0  0  0  0  0  0  0  0
    6.5954    0.2641   -0.7907 H   0  0  0  0  0  0  0  0  0  0  0  0
    6.1752   -1.4560   -0.6669 H   0  0  0  0  0  0  0  0  0  0  0  0
    2.2785   -0.7817   -1.3796 H   0  0  0  0  0  0  0  0  0  0  0  0
    2.2905    0.5972    1.6069 H   0  0  0  0  0  0  0  0  0  0  0  0
   -1.6014   -1.9964    0.0659 H   0  0  0  0  0  0  0  0  0  0  0  0
   -1.8418    1.0554    0.3597 H   0  0  0  0  0  0  0  0  0  0  0  0
   -3.3908   -2.3821   -0.0807 H   0  0  0  0  0  0  0  0  0  0  0  0
   -5.8566   -2.7763   -0.2680 H   0  0  0  0  0  0  0  0  0  0  0  0
   -8.3926   -2.6682    0.6359 H   0  0  0  0  0  0  0  0  0  0  0  0
   -9.1665   -2.1787   -0.9094 H   0  0  0  0  0  0  0  0  0  0  0  0
   -7.4902   -2.8241   -0.9094 H   0  0  0  0  0  0  0  0  0  0  0  0
   -6.3548    3.2071    1.3514 H   0  0  0  0  0  0  0  0  0  0  0  0
   -5.4417    3.1495   -0.1943 H   0  0  0  0  0  0  0  0  0  0  0  0
   -7.1798    3.6027   -0.1943 H   0  0  0  0  0  0  0  0  0  0  0  0
   -4.1018    1.8640    0.3065 H   0  0  0  0  0  0  0  0  0  0  0  0
    1.2168   -2.9766    1.7255 H   0  0  0  0  0  0  0  0  0  0  0  0
    0.3177   -3.3878    0.2258 H   0  0  0  0  0  0  0  0  0  0  0  0
    2.1140   -3.3921    0.2258 H   0  0  0  0  0  0  0  0  0  0  0  0
    2.8412    3.0943   -1.4351 H   0  0  0  0  0  0  0  0  0  0  0  0
    1.2135    2.5481   -0.9200 H   0  0  0  0  0  0  0  0  0  0  0  0
    2.2441    3.2817    1.4959 H   0  0  0  0  0  0  0  0  0  0  0  0
    3.1422    4.4090    0.4238 H   0  0  0  0  0  0  0  0  0  0  0  0
    1.3459    4.4089    0.4238 H   0  0  0  0  0  0  0  0  0  0  0  0
  1  2  1  0
  2  3  1  0
  3  4  1  0
  4  5  2  0
  4  6  1  0
  6  7  1  0
  7  8  1  0
  8  9  2  0
  9 10  1  0
 10 11  2  3
 11 12  1  0
 12 13  2  0
 13 14  1  0
 14 15  2  0
 15 16  1  0
 16 17  1  0
 15 18  1  0
 18 19  1  0
 19 20  1  0
 18 21  2  0
  9 22  1  0
 22 23  1  0
  7 24  1  0
 24 25  1  0
 25 26  1  0
 24 27  1  0
 27 28  2  0
 27  3  1  0
 22  6  1  0
 21 12  1  0
  1 29  1  0
  1 30  1  0
  1 31  1  0
  2 32  1  0
  2 33  1  0
  6 34  1  0
  7 35  1  0
 10 36  1  0
 11 37  1  0
 13 38  1  0
 14 39  1  0
 17 40  1  0
 17 41  1  0
 17 42  1  0
 20 43  1  0
 20 44  1  0
 20 45  1  0
 21 46  1  0
 23 47  1  0
 23 48  1  0
 23 49  1  0
 25 50  1  0
 25 51  1  0
 26 52  1  0
 26 53  1  0
 26 54  1  0
M  END
>  <Original_Name>  (111) 
CHEMBL483242

>  <ROSHAMBO_ComboTanimoto>  (111) 
0.722

>  <ROSHAMBO_ShapeTanimoto>  (111) 
0.628

>  <ROSHAMBO_ColorTanimoto>  (111) 
0.094

>  <ROSHAMBO_FitTverskyCombo>  (111) 
0.922

>  <ROSHAMBO_FitTversky>  (111) 
0.751

>  <ROSHAMBO_FitColorTversky>  (111) 
0.171

>  <ROSHAMBO_RefTverskyCombo>  (111) 
0.965

>  <ROSHAMBO_RefTversky>  (111) 
0.793

>  <ROSHAMBO_RefColorTversky>  (111) 
0.172

>  <ROSHAMBO_Overlap>  (111) 
979.307

$$$$
CHEMBL17859_0_65
     RDKit          3D

 32 34  0  0  0  0  0  0  0  0999 V2000
    3.2350   -2.2109   -0.0169 N   0  0  0  0  0  0  0  0  0  0  0  0
    2.3187   -1.1506    0.1674 C   0  0  0  0  0  0  0  0  0  0  0  0
    0.9686   -1.4251    0.2490 C   0  0  0  0  0  0  0  0  0  0  0  0
    0.2355   -2.5612    0.1913 N   0  0  0  0  0  0  0  0  0  0  0  0
   -1.0682   -2.2544    0.3292 C   0  0  0  0  0  0  0  0  0  0  0  0
   -1.1796   -0.9302    0.4751 N   0  0  0  0  0  0  0  0  0  0  0  0
   -2.3601   -0.1148    0.6556 C   0  0  0  0  0  0  0  0  0  0  0  0
   -3.5773   -0.9692    1.7276 S   0  0  0  0  0  0  0  0  0  0  0  0
   -5.0567   -0.3888    0.8147 C   0  0  0  0  0  0  0  0  0  0  0  0
   -5.9780   -1.5681    0.6497 C   0  0  0  0  0  0  0  0  0  0  0  0
   -7.1358   -1.2672   -0.0245 O   0  0  0  0  0  0  0  0  0  0  0  0
   -4.5380    0.1862   -0.4276 C   0  0  0  0  0  0  0  0  0  0  0  0
   -5.2052   -0.4239   -1.5159 O   0  0  0  0  0  0  0  0  0  0  0  0
   -3.1092    0.0557   -0.6040 C   0  0  0  0  0  0  0  0  0  0  0  0
   -2.7889   -1.0160   -1.4602 O   0  0  0  0  0  0  0  0  0  0  0  0
    0.0739   -0.4029    0.4275 C   0  0  0  0  0  0  0  0  0  0  0  0
    0.5327    0.8718    0.5219 N   0  0  0  0  0  0  0  0  0  0  0  0
    1.8426    1.1548    0.4444 C   0  0  0  0  0  0  0  0  0  0  0  0
    2.3788    2.8253    0.5734 Cl  0  0  0  0  0  0  0  0  0  0  0  0
    2.6982    0.1388    0.2697 N   0  0  0  0  0  0  0  0  0  0  0  0
    4.2442   -2.0146   -0.0788 H   0  0  0  0  0  0  0  0  0  0  0  0
    2.8934   -3.1800   -0.0892 H   0  0  0  0  0  0  0  0  0  0  0  0
   -1.9015   -2.9724    0.3229 H   0  0  0  0  0  0  0  0  0  0  0  0
   -1.9904    0.8367    1.0654 H   0  0  0  0  0  0  0  0  0  0  0  0
   -5.6571    0.3837    1.3174 H   0  0  0  0  0  0  0  0  0  0  0  0
   -5.4441   -2.3521    0.0926 H   0  0  0  0  0  0  0  0  0  0  0  0
   -6.2669   -1.8974    1.6588 H   0  0  0  0  0  0  0  0  0  0  0  0
   -7.8576   -1.0795    0.6266 H   0  0  0  0  0  0  0  0  0  0  0  0
   -4.7304    1.2680   -0.3772 H   0  0  0  0  0  0  0  0  0  0  0  0
   -5.8907   -1.0507   -1.1733 H   0  0  0  0  0  0  0  0  0  0  0  0
   -2.8011    1.0121   -1.0515 H   0  0  0  0  0  0  0  0  0  0  0  0
   -2.5514   -1.8106   -0.9197 H   0  0  0  0  0  0  0  0  0  0  0  0
  1  2  1  0
  2  3  2  0
  3  4  1  0
  4  5  2  0
  5  6  1  0
  6  7  1  0
  7  8  1  0
  8  9  1  0
  9 10  1  0
 10 11  1  0
  9 12  1  0
 12 13  1  0
 12 14  1  0
 14 15  1  0
  6 16  1  0
 16 17  2  0
 17 18  1  0
 18 19  1  0
 18 20  2  0
 20  2  1  0
 16  3  1  0
 14  7  1  0
  1 21  1  0
  1 22  1  0
  5 23  1  0
  7 24  1  0
  9 25  1  0
 10 26  1  0
 10 27  1  0
 11 28  1  0
 12 29  1  0
 13 30  1  0
 14 31  1  0
 15 32  1  0
M  END
>  <Original_Name>  (112) 
CHEMBL17859

>  <ROSHAMBO_ComboTanimoto>  (112) 
0.721

>  <ROSHAMBO_ShapeTanimoto>  (112) 
0.544

>  <ROSHAMBO_ColorTanimoto>  (112) 
0.177

>  <ROSHAMBO_FitTverskyCombo>  (112) 
1.103

>  <ROSHAMBO_FitTversky>  (112) 
0.803

>  <ROSHAMBO_FitColorTversky>  (112) 
0.3

>  <ROSHAMBO_RefTverskyCombo>  (112) 
0.928

>  <ROSHAMBO_RefTversky>  (112) 
0.628

>  <ROSHAMBO_RefColorTversky>  (112) 
0.3

>  <ROSHAMBO_Overlap>  (112) 
763.579

$$$$
CHEMBL369573_0_12
     RDKit          3D

 32 35  0  0  0  0  0  0  0  0999 V2000
   -0.8533   -5.0399    0.9693 N   0  0  0  0  0  0  0  0  0  0  0  0
   -0.7095   -3.6437    0.6968 C   0  0  0  0  0  0  0  0  0  0  0  0
   -1.7996   -2.8804    0.5356 N   0  0  0  0  0  0  0  0  0  0  0  0
   -1.7320   -1.5370    0.2723 C   0  0  0  0  0  0  0  0  0  0  0  0
   -2.9662   -0.7717    0.1221 C   0  0  0  0  0  0  0  0  0  0  0  0
   -3.9548   -0.8347    1.0942 C   0  0  0  0  0  0  0  0  0  0  0  0
   -5.1383   -0.1420    0.9523 C   0  0  0  0  0  0  0  0  0  0  0  0
   -5.3195    0.6194   -0.1832 C   0  0  0  0  0  0  0  0  0  0  0  0
   -4.3483    0.6920   -1.1572 C   0  0  0  0  0  0  0  0  0  0  0  0
   -3.1699   -0.0151   -0.9874 C   0  0  0  0  0  0  0  0  0  0  0  0
   -0.4787   -0.9781    0.1771 C   0  0  0  0  0  0  0  0  0  0  0  0
   -0.0606    0.3934   -0.0706 C   0  0  0  0  0  0  0  0  0  0  0  0
   -0.7610    1.4117   -0.2686 O   0  0  0  0  0  0  0  0  0  0  0  0
    1.4193    0.4177   -0.0518 C   0  0  0  0  0  0  0  0  0  0  0  0
    2.2997    1.4496   -0.2304 C   0  0  0  0  0  0  0  0  0  0  0  0
    3.6507    1.1593   -0.1551 C   0  0  0  0  0  0  0  0  0  0  0  0
    4.0999   -0.1211    0.0904 C   0  0  0  0  0  0  0  0  0  0  0  0
    3.1642   -1.1230    0.2625 C   0  0  0  0  0  0  0  0  0  0  0  0
    1.8143   -0.8688    0.1941 C   0  0  0  0  0  0  0  0  0  0  0  0
    0.6580   -1.7485    0.3400 C   0  0  0  0  0  0  0  0  0  0  0  0
    0.4912   -3.0564    0.5942 N   0  0  0  0  0  0  0  0  0  0  0  0
   -0.0176   -5.6291    1.0938 H   0  0  0  0  0  0  0  0  0  0  0  0
   -1.7925   -5.4566    1.0412 H   0  0  0  0  0  0  0  0  0  0  0  0
   -3.7914   -1.4477    1.9929 H   0  0  0  0  0  0  0  0  0  0  0  0
   -5.9187   -0.1953    1.7256 H   0  0  0  0  0  0  0  0  0  0  0  0
   -6.2573    1.1793   -0.3135 H   0  0  0  0  0  0  0  0  0  0  0  0
   -4.5066    1.3035   -2.0578 H   0  0  0  0  0  0  0  0  0  0  0  0
   -2.3891    0.0366   -1.7606 H   0  0  0  0  0  0  0  0  0  0  0  0
    1.9466    2.4728   -0.4265 H   0  0  0  0  0  0  0  0  0  0  0  0
    4.3829    1.9683   -0.2944 H   0  0  0  0  0  0  0  0  0  0  0  0
    5.1765   -0.3393    0.1479 H   0  0  0  0  0  0  0  0  0  0  0  0
    3.5074   -2.1495    0.4591 H   0  0  0  0  0  0  0  0  0  0  0  0
  1  2  1  0
  2  3  2  0
  3  4  1  0
  4  5  1  0
  5  6  2  0
  6  7  1  0
  7  8  2  0
  8  9  1  0
  9 10  2  0
  4 11  2  0
 11 12  1  0
 12 13  2  0
 12 14  1  0
 14 15  2  0
 15 16  1  0
 16 17  2  0
 17 18  1  0
 18 19  2  0
 19 20  1  0
 20 21  2  0
 21  2  1  0
 10  5  1  0
 20 11  1  0
 19 14  1  0
  1 22  1  0
  1 23  1  0
  6 24  1  0
  7 25  1  0
  8 26  1  0
  9 27  1  0
 10 28  1  0
 15 29  1  0
 16 30  1  0
 17 31  1  0
 18 32  1  0
M  END
>  <Original_Name>  (113) 
CHEMBL369573

>  <ROSHAMBO_ComboTanimoto>  (113) 
0.719

>  <ROSHAMBO_ShapeTanimoto>  (113) 
0.571

>  <ROSHAMBO_ColorTanimoto>  (113) 
0.148

>  <ROSHAMBO_FitTverskyCombo>  (113) 
1.123

>  <ROSHAMBO_FitTversky>  (113) 
0.789

>  <ROSHAMBO_FitColorTversky>  (113) 
0.333

>  <ROSHAMBO_RefTverskyCombo>  (113) 
0.884

>  <ROSHAMBO_RefTversky>  (113) 
0.673

>  <ROSHAMBO_RefColorTversky>  (113) 
0.211

>  <ROSHAMBO_Overlap>  (113) 
821.84

$$$$
CHEMBL483242_0_77
     RDKit          3D

 54 56  0  0  0  0  0  0  0  0999 V2000
    7.0938    0.7754   -1.2176 C   0  0  0  0  0  0  0  0  0  0  0  0
    6.5328    0.4062    0.1136 C   0  0  0  0  0  0  0  0  0  0  0  0
    5.1217    0.1140    0.0896 N   0  0  0  0  0  0  0  0  0  0  0  0
    4.1253    1.1162    0.2955 C   0  0  0  0  0  0  0  0  0  0  0  0
    4.4597    2.1963    0.8308 O   0  0  0  0  0  0  0  0  0  0  0  0
    2.7840    0.7758   -0.1482 C   0  0  0  0  0  0  0  0  0  0  0  0
    2.4777   -0.5703    0.5359 C   0  0  0  0  0  0  0  0  0  0  0  0
    1.0815   -0.6272    0.4208 N   0  0  0  0  0  0  0  0  0  0  0  0
    0.6036    0.5682    0.3531 C   0  0  0  0  0  0  0  0  0  0  0  0
   -0.8116    0.9492    0.2289 C   0  0  0  0  0  0  0  0  0  0  0  0
   -1.7034   -0.0157    0.1778 C   0  0  0  0  0  0  0  0  0  0  0  0
   -3.1428    0.2379    0.0546 C   0  0  0  0  0  0  0  0  0  0  0  0
   -3.6859    1.4979   -0.0185 C   0  0  0  0  0  0  0  0  0  0  0  0
   -5.0520    1.6552   -0.1335 C   0  0  0  0  0  0  0  0  0  0  0  0
   -5.9120    0.5806   -0.1791 C   0  0  0  0  0  0  0  0  0  0  0  0
   -7.2857    0.7154   -0.2942 O   0  0  0  0  0  0  0  0  0  0  0  0
   -7.8020    2.0331   -0.3666 C   0  0  0  0  0  0  0  0  0  0  0  0
   -5.3879   -0.6959   -0.1072 C   0  0  0  0  0  0  0  0  0  0  0  0
   -6.2238   -1.8063   -0.1501 O   0  0  0  0  0  0  0  0  0  0  0  0
   -5.6390   -3.0902   -0.0730 C   0  0  0  0  0  0  0  0  0  0  0  0
   -4.0124   -0.8391    0.0082 C   0  0  0  0  0  0  0  0  0  0  0  0
    1.6904    1.5150    0.3978 N   0  0  0  0  0  0  0  0  0  0  0  0
    1.6256    2.8671    0.8872 C   0  0  0  0  0  0  0  0  0  0  0  0
    3.2728   -1.5213   -0.1712 N   0  0  0  0  0  0  0  0  0  0  0  0
    2.8013   -2.6840   -0.8739 C   0  0  0  0  0  0  0  0  0  0  0  0
    2.7814   -3.8439    0.0964 C   0  0  0  0  0  0  0  0  0  0  0  0
    4.6949   -1.2467   -0.1517 C   0  0  0  0  0  0  0  0  0  0  0  0
    5.5457   -2.1540   -0.3375 O   0  0  0  0  0  0  0  0  0  0  0  0
    8.0051    1.3753   -1.0778 H   0  0  0  0  0  0  0  0  0  0  0  0
    7.3388   -0.1385   -1.7785 H   0  0  0  0  0  0  0  0  0  0  0  0
    6.3512    1.3619   -1.7785 H   0  0  0  0  0  0  0  0  0  0  0  0
    7.0652   -0.4842    0.4793 H   0  0  0  0  0  0  0  0  0  0  0  0
    6.6684    1.2776    0.7711 H   0  0  0  0  0  0  0  0  0  0  0  0
    2.8241    0.8936   -1.2411 H   0  0  0  0  0  0  0  0  0  0  0  0
    2.7260   -0.7429    1.5935 H   0  0  0  0  0  0  0  0  0  0  0  0
   -1.1137    2.0058    0.1805 H   0  0  0  0  0  0  0  0  0  0  0  0
   -1.3551   -1.0578    0.2297 H   0  0  0  0  0  0  0  0  0  0  0  0
   -3.0316    2.3815    0.0147 H   0  0  0  0  0  0  0  0  0  0  0  0
   -5.4676    2.6720   -0.1906 H   0  0  0  0  0  0  0  0  0  0  0  0
   -7.9550    2.4233    0.6505 H   0  0  0  0  0  0  0  0  0  0  0  0
   -7.0898    2.6771   -0.9032 H   0  0  0  0  0  0  0  0  0  0  0  0
   -8.7622    2.0217   -0.9032 H   0  0  0  0  0  0  0  0  0  0  0  0
   -5.5107   -3.3719    0.9826 H   0  0  0  0  0  0  0  0  0  0  0  0
   -6.2928   -3.8214   -0.5707 H   0  0  0  0  0  0  0  0  0  0  0  0
   -4.6581   -3.0768   -0.5707 H   0  0  0  0  0  0  0  0  0  0  0  0
   -3.5935   -1.8546    0.0656 H   0  0  0  0  0  0  0  0  0  0  0  0
    1.6260    2.8593    1.9872 H   0  0  0  0  0  0  0  0  0  0  0  0
    2.4978    3.4306    0.5243 H   0  0  0  0  0  0  0  0  0  0  0  0
    0.7036    3.3446    0.5243 H   0  0  0  0  0  0  0  0  0  0  0  0
    1.7868   -2.5016   -1.2577 H   0  0  0  0  0  0  0  0  0  0  0  0
    3.4623   -2.9096   -1.7237 H   0  0  0  0  0  0  0  0  0  0  0  0
    2.7880   -3.4598    1.1272 H   0  0  0  0  0  0  0  0  0  0  0  0
    1.8728   -4.4423   -0.0661 H   0  0  0  0  0  0  0  0  0  0  0  0
    3.6688   -4.4732   -0.0661 H   0  0  0  0  0  0  0  0  0  0  0  0
  1  2  1  0
  2  3  1  0
  3  4  1  0
  4  5  2  0
  4  6  1  0
  6  7  1  0
  7  8  1  0
  8  9  2  0
  9 10  1  0
 10 11  2  3
 11 12  1  0
 12 13  2  0
 13 14  1  0
 14 15  2  0
 15 16  1  0
 16 17  1  0
 15 18  1  0
 18 19  1  0
 19 20  1  0
 18 21  2  0
  9 22  1  0
 22 23  1  0
  7 24  1  0
 24 25  1  0
 25 26  1  0
 24 27  1  0
 27 28  2  0
 27  3  1  0
 22  6  1  0
 21 12  1  0
  1 29  1  0
  1 30  1  0
  1 31  1  0
  2 32  1  0
  2 33  1  0
  6 34  1  0
  7 35  1  0
 10 36  1  0
 11 37  1  0
 13 38  1  0
 14 39  1  0
 17 40  1  0
 17 41  1  0
 17 42  1  0
 20 43  1  0
 20 44  1  0
 20 45  1  0
 21 46  1  0
 23 47  1  0
 23 48  1  0
 23 49  1  0
 25 50  1  0
 25 51  1  0
 26 52  1  0
 26 53  1  0
 26 54  1  0
M  END
>  <Original_Name>  (114) 
CHEMBL483242

>  <ROSHAMBO_ComboTanimoto>  (114) 
0.718

>  <ROSHAMBO_ShapeTanimoto>  (114) 
0.619

>  <ROSHAMBO_ColorTanimoto>  (114) 
0.1

>  <ROSHAMBO_FitTverskyCombo>  (114) 
0.925

>  <ROSHAMBO_FitTversky>  (114) 
0.744

>  <ROSHAMBO_FitColorTversky>  (114) 
0.181

>  <ROSHAMBO_RefTverskyCombo>  (114) 
0.968

>  <ROSHAMBO_RefTversky>  (114) 
0.785

>  <ROSHAMBO_RefColorTversky>  (114) 
0.182

>  <ROSHAMBO_Overlap>  (114) 
969.487

$$$$
CHEMBL447192_0_36
     RDKit          3D

 31 33  0  0  0  0  0  0  0  0999 V2000
    2.3109   -3.5453    0.1887 N   0  0  0  0  0  0  0  0  0  0  0  0
    1.2976   -2.8852    0.0892 C   0  0  0  0  0  0  0  0  0  0  0  0
    0.1193   -2.1237   -0.0021 C   0  0  0  0  0  0  0  0  0  0  0  0
    0.1579   -0.7382    0.0318 C   0  0  0  0  0  0  0  0  0  0  0  0
    1.4496   -0.0619    0.1996 C   0  0  0  0  0  0  0  0  0  0  0  0
    1.7321    1.2655    0.2163 C   0  0  0  0  0  0  0  0  0  0  0  0
    3.0831    1.4095    0.3971 C   0  0  0  0  0  0  0  0  0  0  0  0
    3.5929    0.1061    0.4883 C   0  0  0  0  0  0  0  0  0  0  0  0
    2.5972   -0.6947    0.3671 O   0  0  0  0  0  0  0  0  0  0  0  0
   -1.0075   -0.0476   -0.0931 C   0  0  0  0  0  0  0  0  0  0  0  0
   -2.2044   -0.7132   -0.2503 C   0  0  0  0  0  0  0  0  0  0  0  0
   -3.4968   -0.0724   -0.4136 C   0  0  0  0  0  0  0  0  0  0  0  0
   -4.6467   -0.8132   -0.5853 C   0  0  0  0  0  0  0  0  0  0  0  0
   -5.8789   -0.2210   -0.7528 C   0  0  0  0  0  0  0  0  0  0  0  0
   -6.0312    1.1387   -0.7578 C   0  0  0  0  0  0  0  0  0  0  0  0
   -4.8652    1.9028   -0.5831 C   0  0  0  0  0  0  0  0  0  0  0  0
   -3.6337    1.2957   -0.4159 C   0  0  0  0  0  0  0  0  0  0  0  0
   -2.1932   -2.0846   -0.2767 N   0  0  0  0  0  0  0  0  0  0  0  0
   -1.0790   -2.8000   -0.1587 C   0  0  0  0  0  0  0  0  0  0  0  0
   -1.0833   -4.2215   -0.1908 N   0  0  0  0  0  0  0  0  0  0  0  0
    1.0043    2.0826    0.1043 H   0  0  0  0  0  0  0  0  0  0  0  0
    3.6491    2.3507    0.4580 H   0  0  0  0  0  0  0  0  0  0  0  0
    4.6458   -0.1761    0.6356 H   0  0  0  0  0  0  0  0  0  0  0  0
   -0.9946    1.0520   -0.0683 H   0  0  0  0  0  0  0  0  0  0  0  0
   -4.5780   -1.9110   -0.5887 H   0  0  0  0  0  0  0  0  0  0  0  0
   -6.7651   -0.8589   -0.8862 H   0  0  0  0  0  0  0  0  0  0  0  0
   -7.0162    1.6096   -0.8918 H   0  0  0  0  0  0  0  0  0  0  0  0
   -4.9328    3.0008   -0.5791 H   0  0  0  0  0  0  0  0  0  0  0  0
   -2.7406    1.9237   -0.2814 H   0  0  0  0  0  0  0  0  0  0  0  0
   -0.1992   -4.7414   -0.0961 H   0  0  0  0  0  0  0  0  0  0  0  0
   -1.9704   -4.7313   -0.3088 H   0  0  0  0  0  0  0  0  0  0  0  0
  1  2  3  0
  2  3  1  0
  3  4  2  0
  4  5  1  0
  5  6  2  0
  6  7  1  0
  7  8  2  0
  8  9  1  0
  4 10  1  0
 10 11  2  0
 11 12  1  0
 12 13  2  0
 13 14  1  0
 14 15  2  0
 15 16  1  0
 16 17  2  0
 11 18  1  0
 18 19  2  0
 19 20  1  0
 19  3  1  0
  9  5  1  0
 17 12  1  0
  6 21  1  0
  7 22  1  0
  8 23  1  0
 10 24  1  0
 13 25  1  0
 14 26  1  0
 15 27  1  0
 16 28  1  0
 17 29  1  0
 20 30  1  0
 20 31  1  0
M  END
>  <Original_Name>  (115) 
CHEMBL447192

>  <ROSHAMBO_ComboTanimoto>  (115) 
0.714

>  <ROSHAMBO_ShapeTanimoto>  (115) 
0.553

>  <ROSHAMBO_ColorTanimoto>  (115) 
0.162

>  <ROSHAMBO_FitTverskyCombo>  (115) 
1.182

>  <ROSHAMBO_FitTversky>  (115) 
0.798

>  <ROSHAMBO_FitColorTversky>  (115) 
0.384

>  <ROSHAMBO_RefTverskyCombo>  (115) 
0.861

>  <ROSHAMBO_RefTversky>  (115) 
0.642

>  <ROSHAMBO_RefColorTversky>  (115) 
0.218

>  <ROSHAMBO_Overlap>  (115) 
781.686

$$$$
CHEMBL408624_0_39
     RDKit          3D

 31 33  0  0  0  0  0  0  0  0999 V2000
   -0.5212    3.2976   -0.1537 C   0  0  0  0  0  0  0  0  0  0  0  0
   -0.1185    2.5471    1.0921 C   0  0  0  0  0  0  0  0  0  0  0  0
    0.4449    1.2074    0.7774 C   0  0  0  0  0  0  0  0  0  0  0  0
    1.7687    1.1404    0.5827 N   0  0  0  0  0  0  0  0  0  0  0  0
    2.2551   -0.0927    0.2976 C   0  0  0  0  0  0  0  0  0  0  0  0
    3.6561   -0.3394    0.0605 C   0  0  0  0  0  0  0  0  0  0  0  0
    4.6116    0.6535    0.1039 C   0  0  0  0  0  0  0  0  0  0  0  0
    5.9513    0.4267   -0.1212 C   0  0  0  0  0  0  0  0  0  0  0  0
    6.3538   -0.8577   -0.4037 C   0  0  0  0  0  0  0  0  0  0  0  0
    5.4014   -1.8480   -0.4472 C   0  0  0  0  0  0  0  0  0  0  0  0
    5.8353   -3.2442   -0.7538 C   0  0  0  0  0  0  0  0  0  0  0  0
    4.0927   -1.5715   -0.2176 N   0  0  0  0  0  0  0  0  0  0  0  0
    1.3899   -1.1910    0.2230 C   0  0  0  0  0  0  0  0  0  0  0  0
    1.7013   -2.8754   -0.1178 S   0  0  0  0  0  0  0  0  0  0  0  0
   -0.0523   -3.4112    0.0298 C   0  0  0  0  0  0  0  0  0  0  0  0
   -0.6889   -2.2360    0.3254 C   0  0  0  0  0  0  0  0  0  0  0  0
    0.0552   -1.1092    0.4218 C   0  0  0  0  0  0  0  0  0  0  0  0
   -0.3889    0.1760    0.7103 N   0  0  0  0  0  0  0  0  0  0  0  0
   -1.0238    4.2344    0.1289 H   0  0  0  0  0  0  0  0  0  0  0  0
    0.3748    3.5274   -0.7491 H   0  0  0  0  0  0  0  0  0  0  0  0
   -1.2081    2.6782   -0.7491 H   0  0  0  0  0  0  0  0  0  0  0  0
    0.6401    3.1340    1.6307 H   0  0  0  0  0  0  0  0  0  0  0  0
   -1.0189    2.4013    1.7070 H   0  0  0  0  0  0  0  0  0  0  0  0
    4.2872    1.6799    0.3301 H   0  0  0  0  0  0  0  0  0  0  0  0
    6.6792    1.2501   -0.0762 H   0  0  0  0  0  0  0  0  0  0  0  0
    7.4133   -1.0872   -0.5906 H   0  0  0  0  0  0  0  0  0  0  0  0
    6.0050   -3.7902    0.1859 H   0  0  0  0  0  0  0  0  0  0  0  0
    5.0526   -3.7518   -1.3366 H   0  0  0  0  0  0  0  0  0  0  0  0
    6.7679   -3.2187   -1.3366 H   0  0  0  0  0  0  0  0  0  0  0  0
   -0.4797   -4.4177   -0.0891 H   0  0  0  0  0  0  0  0  0  0  0  0
   -1.7775   -2.2079    0.4807 H   0  0  0  0  0  0  0  0  0  0  0  0
  1  2  1  0
  2  3  1  0
  3  4  2  0
  4  5  1  0
  5  6  1  0
  6  7  2  0
  7  8  1  0
  8  9  2  0
  9 10  1  0
 10 11  1  0
 10 12  2  0
  5 13  2  0
 13 14  1  0
 14 15  1  0
 15 16  2  0
 16 17  1  0
 17 18  2  0
 18  3  1  0
 12  6  1  0
 17 13  1  0
  1 19  1  0
  1 20  1  0
  1 21  1  0
  2 22  1  0
  2 23  1  0
  7 24  1  0
  8 25  1  0
  9 26  1  0
 11 27  1  0
 11 28  1  0
 11 29  1  0
 15 30  1  0
 16 31  1  0
M  END
>  <Original_Name>  (116) 
CHEMBL408624

>  <ROSHAMBO_ComboTanimoto>  (116) 
0.711

>  <ROSHAMBO_ShapeTanimoto>  (116) 
0.511

>  <ROSHAMBO_ColorTanimoto>  (116) 
0.201

>  <ROSHAMBO_FitTverskyCombo>  (116) 
1.179

>  <ROSHAMBO_FitTversky>  (116) 
0.814

>  <ROSHAMBO_FitColorTversky>  (116) 
0.365

>  <ROSHAMBO_RefTverskyCombo>  (116) 
0.886

>  <ROSHAMBO_RefTversky>  (116) 
0.578

>  <ROSHAMBO_RefColorTversky>  (116) 
0.308

>  <ROSHAMBO_Overlap>  (116) 
700.33

$$$$
CHEMBL491317_0_3
     RDKit          3D

 46 49  0  0  0  0  0  0  0  0999 V2000
    0.1923   -3.2722    6.0519 C   0  0  0  0  0  0  0  0  0  0  0  0
    0.8588   -2.4831    5.0351 N   0  0  0  0  0  0  0  0  0  0  0  0
    0.2049   -2.2306    3.7799 C   0  0  0  0  0  0  0  0  0  0  0  0
   -1.0217   -2.7296    3.5565 N   0  0  0  0  0  0  0  0  0  0  0  0
   -1.6820   -2.5271    2.4036 C   0  0  0  0  0  0  0  0  0  0  0  0
   -1.0762   -1.7831    1.4242 C   0  0  0  0  0  0  0  0  0  0  0  0
   -1.4887   -1.4260    0.1927 N   0  0  0  0  0  0  0  0  0  0  0  0
   -2.7022   -1.7422   -0.5192 C   0  0  0  0  0  0  0  0  0  0  0  0
   -3.8653   -0.9292   -0.2889 C   0  0  0  0  0  0  0  0  0  0  0  0
   -4.0026    0.3418   -0.7812 C   0  0  0  0  0  0  0  0  0  0  0  0
   -3.0485    0.9411   -1.5381 F   0  0  0  0  0  0  0  0  0  0  0  0
   -5.1315    1.1270   -0.5673 C   0  0  0  0  0  0  0  0  0  0  0  0
   -6.1495    0.5796    0.1783 C   0  0  0  0  0  0  0  0  0  0  0  0
   -6.0802   -0.6869    0.7010 C   0  0  0  0  0  0  0  0  0  0  0  0
   -4.9404   -1.4078    0.4531 C   0  0  0  0  0  0  0  0  0  0  0  0
   -4.8665   -2.6719    0.9379 F   0  0  0  0  0  0  0  0  0  0  0  0
   -0.4830   -0.7014   -0.3260 C   0  0  0  0  0  0  0  0  0  0  0  0
   -0.3959   -0.1467   -1.4710 O   0  0  0  0  0  0  0  0  0  0  0  0
    0.5460   -0.5856    0.5304 N   0  0  0  0  0  0  0  0  0  0  0  0
    0.2043   -1.2521    1.6346 C   0  0  0  0  0  0  0  0  0  0  0  0
    0.7852   -1.5084    2.8200 N   0  0  0  0  0  0  0  0  0  0  0  0
    1.7994    0.1108    0.3474 C   0  0  0  0  0  0  0  0  0  0  0  0
    1.7856    1.4756    0.1504 C   0  0  0  0  0  0  0  0  0  0  0  0
    2.9649    2.1618   -0.0246 C   0  0  0  0  0  0  0  0  0  0  0  0
    4.1425    1.4483    0.0034 C   0  0  0  0  0  0  0  0  0  0  0  0
    4.1798    0.0820    0.1990 C   0  0  0  0  0  0  0  0  0  0  0  0
    5.3837   -0.6165    0.2229 O   0  0  0  0  0  0  0  0  0  0  0  0
    6.5754    0.1221    0.0398 C   0  0  0  0  0  0  0  0  0  0  0  0
    2.9673   -0.5830    0.3731 C   0  0  0  0  0  0  0  0  0  0  0  0
    0.4931   -2.9160    7.0482 H   0  0  0  0  0  0  0  0  0  0  0  0
   -0.8972   -3.1702    5.9395 H   0  0  0  0  0  0  0  0  0  0  0  0
    0.4751   -4.3293    5.9395 H   0  0  0  0  0  0  0  0  0  0  0  0
    1.7999   -2.1036    5.2116 H   0  0  0  0  0  0  0  0  0  0  0  0
   -2.6861   -2.9488    2.2492 H   0  0  0  0  0  0  0  0  0  0  0  0
   -2.4728   -1.6836   -1.5934 H   0  0  0  0  0  0  0  0  0  0  0  0
   -2.9873   -2.7336   -0.1374 H   0  0  0  0  0  0  0  0  0  0  0  0
   -5.2067    2.1447   -0.9781 H   0  0  0  0  0  0  0  0  0  0  0  0
   -7.0529    1.1797    0.3623 H   0  0  0  0  0  0  0  0  0  0  0  0
   -6.9054   -1.1070    1.2948 H   0  0  0  0  0  0  0  0  0  0  0  0
    0.8284    2.0173    0.1332 H   0  0  0  0  0  0  0  0  0  0  0  0
    2.9673    3.2504   -0.1824 H   0  0  0  0  0  0  0  0  0  0  0  0
    5.0908    1.9882   -0.1356 H   0  0  0  0  0  0  0  0  0  0  0  0
    6.9986    0.3844    1.0206 H   0  0  0  0  0  0  0  0  0  0  0  0
    7.3005   -0.4852   -0.5219 H   0  0  0  0  0  0  0  0  0  0  0  0
    6.3542    1.0416   -0.5219 H   0  0  0  0  0  0  0  0  0  0  0  0
    2.9559   -1.6715    0.5316 H   0  0  0  0  0  0  0  0  0  0  0  0
  1  2  1  0
  2  3  1  0
  3  4  2  0
  4  5  1  0
  5  6  2  0
  6  7  1  0
  7  8  1  0
  8  9  1  0
  9 10  2  0
 10 11  1  0
 10 12  1  0
 12 13  2  0
 13 14  1  0
 14 15  2  0
 15 16  1  0
  7 17  1  0
 17 18  2  0
 17 19  1  0
 19 20  1  0
 20 21  2  0
 19 22  1  0
 22 23  2  0
 23 24  1  0
 24 25  2  0
 25 26  1  0
 26 27  1  0
 27 28  1  0
 26 29  2  0
 21  3  1  0
 29 22  1  0
 20  6  1  0
 15  9  1  0
  1 30  1  0
  1 31  1  0
  1 32  1  0
  2 33  1  0
  5 34  1  0
  8 35  1  0
  8 36  1  0
 12 37  1  0
 13 38  1  0
 14 39  1  0
 23 40  1  0
 24 41  1  0
 25 42  1  0
 28 43  1  0
 28 44  1  0
 28 45  1  0
 29 46  1  0
M  END
>  <Original_Name>  (117) 
CHEMBL491317

>  <ROSHAMBO_ComboTanimoto>  (117) 
0.706

>  <ROSHAMBO_ShapeTanimoto>  (117) 
0.551

>  <ROSHAMBO_ColorTanimoto>  (117) 
0.155

>  <ROSHAMBO_FitTverskyCombo>  (117) 
0.933

>  <ROSHAMBO_FitTversky>  (117) 
0.67

>  <ROSHAMBO_FitColorTversky>  (117) 
0.263

>  <ROSHAMBO_RefTverskyCombo>  (117) 
1.031

>  <ROSHAMBO_RefTversky>  (117) 
0.757

>  <ROSHAMBO_RefColorTversky>  (117) 
0.274

>  <ROSHAMBO_Overlap>  (117) 
938.288

$$$$
CHEMBL515992_0_84
     RDKit          3D

 41 43  0  0  0  0  0  0  0  0999 V2000
   -2.4296    5.1181    0.2506 C   0  0  0  0  0  0  0  0  0  0  0  0
   -2.2343    3.6232    0.1517 C   0  0  0  0  0  0  0  0  0  0  0  0
   -3.2220    2.8909    0.0802 O   0  0  0  0  0  0  0  0  0  0  0  0
   -0.9301    3.0937    0.1429 N   0  0  0  0  0  0  0  0  0  0  0  0
   -0.5713    1.7283    0.0564 C   0  0  0  0  0  0  0  0  0  0  0  0
   -1.4318    0.6631   -0.0352 C   0  0  0  0  0  0  0  0  0  0  0  0
   -0.9997   -0.6646   -0.1176 C   0  0  0  0  0  0  0  0  0  0  0  0
   -1.9457   -1.7302   -0.2129 N   0  0  0  0  0  0  0  0  0  0  0  0
   -1.6342   -3.1635   -0.2878 C   0  0  0  0  0  0  0  0  0  0  0  0
   -2.7748   -3.8292    0.4504 C   0  0  0  0  0  0  0  0  0  0  0  0
   -3.9370   -2.8975    0.3654 C   0  0  0  0  0  0  0  0  0  0  0  0
   -3.3570   -1.6558   -0.2527 C   0  0  0  0  0  0  0  0  0  0  0  0
   -4.0314   -0.7217   -0.7200 O   0  0  0  0  0  0  0  0  0  0  0  0
    0.3205   -0.9019   -0.1059 N   0  0  0  0  0  0  0  0  0  0  0  0
    1.1914    0.1156   -0.0173 C   0  0  0  0  0  0  0  0  0  0  0  0
    2.6035   -0.1248   -0.0038 N   0  0  0  0  0  0  0  0  0  0  0  0
    3.5474    0.7743   -0.2145 N   0  0  0  0  0  0  0  0  0  0  0  0
    4.7606    0.2341   -0.1336 C   0  0  0  0  0  0  0  0  0  0  0  0
    6.0141    1.0187   -0.3285 C   0  0  0  0  0  0  0  0  0  0  0  0
    4.5851   -1.0929    0.1461 C   0  0  0  0  0  0  0  0  0  0  0  0
    3.2214   -1.2901    0.2220 C   0  0  0  0  0  0  0  0  0  0  0  0
    2.5038   -2.5626    0.5043 C   0  0  0  0  0  0  0  0  0  0  0  0
    0.7509    1.3748    0.0601 N   0  0  0  0  0  0  0  0  0  0  0  0
   -2.4682    5.4136    1.3095 H   0  0  0  0  0  0  0  0  0  0  0  0
   -1.5908    5.6309   -0.2428 H   0  0  0  0  0  0  0  0  0  0  0  0
   -3.3720    5.3982   -0.2428 H   0  0  0  0  0  0  0  0  0  0  0  0
   -0.1566    3.7709    0.2060 H   0  0  0  0  0  0  0  0  0  0  0  0
   -2.5134    0.8631   -0.0443 H   0  0  0  0  0  0  0  0  0  0  0  0
   -1.5969   -3.5007   -1.3342 H   0  0  0  0  0  0  0  0  0  0  0  0
   -0.6528   -3.4050    0.1463 H   0  0  0  0  0  0  0  0  0  0  0  0
   -3.0234   -4.7907   -0.0225 H   0  0  0  0  0  0  0  0  0  0  0  0
   -2.5051   -4.0335    1.4971 H   0  0  0  0  0  0  0  0  0  0  0  0
   -4.7304   -3.3177   -0.2701 H   0  0  0  0  0  0  0  0  0  0  0  0
   -4.4026   -2.7079    1.3438 H   0  0  0  0  0  0  0  0  0  0  0  0
    6.4371    1.2835    0.6518 H   0  0  0  0  0  0  0  0  0  0  0  0
    6.7414    0.4143   -0.8905 H   0  0  0  0  0  0  0  0  0  0  0  0
    5.7883    1.9369   -0.8905 H   0  0  0  0  0  0  0  0  0  0  0  0
    5.3716   -1.8497    0.2829 H   0  0  0  0  0  0  0  0  0  0  0  0
    2.4237   -2.7048    1.5921 H   0  0  0  0  0  0  0  0  0  0  0  0
    1.4963   -2.5207    0.0648 H   0  0  0  0  0  0  0  0  0  0  0  0
    3.0610   -3.4030    0.0648 H   0  0  0  0  0  0  0  0  0  0  0  0
  1  2  1  0
  2  3  2  0
  2  4  1  0
  4  5  1  0
  5  6  2  0
  6  7  1  0
  7  8  1  0
  8  9  1  0
  9 10  1  0
 10 11  1  0
 11 12  1  0
 12 13  2  0
  7 14  2  0
 14 15  1  0
 15 16  1  0
 16 17  1  0
 17 18  2  0
 18 19  1  0
 18 20  1  0
 20 21  2  0
 21 22  1  0
 15 23  2  0
 23  5  1  0
 12  8  1  0
 21 16  1  0
  1 24  1  0
  1 25  1  0
  1 26  1  0
  4 27  1  0
  6 28  1  0
  9 29  1  0
  9 30  1  0
 10 31  1  0
 10 32  1  0
 11 33  1  0
 11 34  1  0
 19 35  1  0
 19 36  1  0
 19 37  1  0
 20 38  1  0
 22 39  1  0
 22 40  1  0
 22 41  1  0
M  END
>  <Original_Name>  (118) 
CHEMBL515992

>  <ROSHAMBO_ComboTanimoto>  (118) 
0.706

>  <ROSHAMBO_ShapeTanimoto>  (118) 
0.494

>  <ROSHAMBO_ColorTanimoto>  (118) 
0.212

>  <ROSHAMBO_FitTverskyCombo>  (118) 
1.079

>  <ROSHAMBO_FitTversky>  (118) 
0.7

>  <ROSHAMBO_FitColorTversky>  (118) 
0.379

>  <ROSHAMBO_RefTverskyCombo>  (118) 
0.952

>  <ROSHAMBO_RefTversky>  (118) 
0.626

>  <ROSHAMBO_RefColorTversky>  (118) 
0.326

>  <ROSHAMBO_Overlap>  (118) 
766.315

$$$$
CHEMBL17103_0_57
     RDKit          3D

 69 73  0  0  0  0  0  0  0  0999 V2000
    9.0051    5.0593   -1.8598 O   0  0  0  0  0  1  0  0  0  0  0  0
    8.0302    4.0675   -1.4471 C   0  0  0  0  0  0  0  0  0  0  0  0
    6.8639    4.4822   -1.5343 O   0  0  0  0  0  0  0  0  0  0  0  0
    8.5726    2.8253   -1.0257 C   0  0  0  0  0  0  0  0  0  0  0  0
    8.0598    1.7529   -0.5752 C   0  0  0  0  0  0  0  0  0  0  0  0
    6.7197    1.3611   -0.2954 C   0  0  0  0  0  0  0  0  0  0  0  0
    5.7034    2.2318   -0.0331 C   0  0  0  0  0  0  0  0  0  0  0  0
    4.3899    1.7556    0.1276 C   0  0  0  0  0  0  0  0  0  0  0  0
    4.0797    0.4214    0.0324 C   0  0  0  0  0  0  0  0  0  0  0  0
    5.1260   -0.4212   -0.2288 C   0  0  0  0  0  0  0  0  0  0  0  0
    6.4158   -0.0097   -0.3940 C   0  0  0  0  0  0  0  0  0  0  0  0
    2.7108   -0.0766    0.1997 C   0  0  0  0  0  0  0  0  0  0  0  0
    1.6378    0.6894    0.4595 N   0  0  0  0  0  0  0  0  0  0  0  0
    0.5348   -0.1100    0.5503 C   0  0  0  0  0  0  0  0  0  0  0  0
    0.9971   -1.3855    0.3333 C   0  0  0  0  0  0  0  0  0  0  0  0
    2.3449   -1.3631    0.1163 N   0  0  0  0  0  0  0  0  0  0  0  0
    0.0917   -2.3746    0.3711 N   0  0  0  0  0  0  0  0  0  0  0  0
    0.5537   -3.7262    0.1526 C   0  0  0  0  0  0  0  0  0  0  0  0
    0.5835   -4.1874   -1.2511 C   0  0  0  0  0  0  0  0  0  0  0  0
   -0.6908   -4.2034   -2.0015 C   0  0  0  0  0  0  0  0  0  0  0  0
   -1.5825   -5.3862   -1.6968 C   0  0  0  0  0  0  0  0  0  0  0  0
   -0.7769   -6.6217   -2.1265 C   0  0  0  0  0  0  0  0  0  0  0  0
    0.3753   -6.6980   -1.1250 C   0  0  0  0  0  0  0  0  0  0  0  0
    1.2719   -5.5234   -1.3123 C   0  0  0  0  0  0  0  0  0  0  0  0
   -1.2009   -2.1186    0.6103 C   0  0  0  0  0  0  0  0  0  0  0  0
   -2.0476   -3.0798    0.6458 O   0  0  0  0  0  0  0  0  0  0  0  0
   -1.7026   -0.8890    0.8277 N   0  0  0  0  0  0  0  0  0  0  0  0
   -3.1015   -0.5978    1.0672 C   0  0  0  0  0  0  0  0  0  0  0  0
   -3.9064   -0.2421   -0.1225 C   0  0  0  0  0  0  0  0  0  0  0  0
   -5.3278    0.0221    0.3753 C   0  0  0  0  0  0  0  0  0  0  0  0
   -6.2817    0.2465   -0.7496 C   0  0  0  0  0  0  0  0  0  0  0  0
   -5.5930    0.1607   -2.0839 C   0  0  0  0  0  0  0  0  0  0  0  0
   -4.9532   -1.1932   -2.2042 C   0  0  0  0  0  0  0  0  0  0  0  0
   -3.9981   -1.4123   -1.0665 C   0  0  0  0  0  0  0  0  0  0  0  0
   -0.7953    0.1365    0.7939 C   0  0  0  0  0  0  0  0  0  0  0  0
   -1.1609    1.3081    0.9834 O   0  0  0  0  0  0  0  0  0  0  0  0
    9.6688    2.7813   -1.1061 H   0  0  0  0  0  0  0  0  0  0  0  0
    8.8007    0.9696   -0.3575 H   0  0  0  0  0  0  0  0  0  0  0  0
    5.9113    3.3085    0.0530 H   0  0  0  0  0  0  0  0  0  0  0  0
    3.5847    2.4755    0.3363 H   0  0  0  0  0  0  0  0  0  0  0  0
    4.9135   -1.4973   -0.3105 H   0  0  0  0  0  0  0  0  0  0  0  0
    7.2102   -0.7415   -0.6022 H   0  0  0  0  0  0  0  0  0  0  0  0
    2.9558   -2.1705   -0.0728 H   0  0  0  0  0  0  0  0  0  0  0  0
    1.5762   -3.7999    0.5517 H   0  0  0  0  0  0  0  0  0  0  0  0
   -0.1781   -4.3727    0.6591 H   0  0  0  0  0  0  0  0  0  0  0  0
    1.1468   -3.4078   -1.7848 H   0  0  0  0  0  0  0  0  0  0  0  0
   -1.2441   -3.2842   -1.7587 H   0  0  0  0  0  0  0  0  0  0  0  0
   -0.4260   -4.2769   -3.0666 H   0  0  0  0  0  0  0  0  0  0  0  0
   -1.8109   -5.4298   -0.6217 H   0  0  0  0  0  0  0  0  0  0  0  0
   -2.5456   -5.3206   -2.2242 H   0  0  0  0  0  0  0  0  0  0  0  0
   -1.3981   -7.5280   -2.0736 H   0  0  0  0  0  0  0  0  0  0  0  0
   -0.4226   -6.5482   -3.1653 H   0  0  0  0  0  0  0  0  0  0  0  0
   -0.0273   -6.6929   -0.1013 H   0  0  0  0  0  0  0  0  0  0  0  0
    0.9445   -7.6248   -1.2895 H   0  0  0  0  0  0  0  0  0  0  0  0
    2.0389   -5.5494   -0.5242 H   0  0  0  0  0  0  0  0  0  0  0  0
    1.6883   -5.6106   -2.3267 H   0  0  0  0  0  0  0  0  0  0  0  0
   -3.5560   -1.4880    1.5263 H   0  0  0  0  0  0  0  0  0  0  0  0
   -3.1112    0.2963    1.7079 H   0  0  0  0  0  0  0  0  0  0  0  0
   -3.4514    0.6184   -0.6348 H   0  0  0  0  0  0  0  0  0  0  0  0
   -5.6663   -0.8460    0.9601 H   0  0  0  0  0  0  0  0  0  0  0  0
   -5.3082    0.9335    0.9909 H   0  0  0  0  0  0  0  0  0  0  0  0
   -7.0717   -0.5177   -0.7057 H   0  0  0  0  0  0  0  0  0  0  0  0
   -6.7059    1.2560   -0.6453 H   0  0  0  0  0  0  0  0  0  0  0  0
   -6.3286    0.2964   -2.8904 H   0  0  0  0  0  0  0  0  0  0  0  0
   -4.8283    0.9473   -2.1644 H   0  0  0  0  0  0  0  0  0  0  0  0
   -5.7333   -1.9684   -2.1795 H   0  0  0  0  0  0  0  0  0  0  0  0
   -4.4020   -1.2492   -3.1545 H   0  0  0  0  0  0  0  0  0  0  0  0
   -4.3311   -2.2929   -0.4975 H   0  0  0  0  0  0  0  0  0  0  0  0
   -2.9993   -1.5515   -1.5059 H   0  0  0  0  0  0  0  0  0  0  0  0
  1  2  1  0
  2  3  2  0
  2  4  1  0
  4  5  2  3
  5  6  1  0
  6  7  2  0
  7  8  1  0
  8  9  2  0
  9 10  1  0
 10 11  2  0
  9 12  1  0
 12 13  2  0
 13 14  1  0
 14 15  2  0
 15 16  1  0
 15 17  1  0
 17 18  1  0
 18 19  1  0
 19 20  1  0
 20 21  1  0
 21 22  1  0
 22 23  1  0
 23 24  1  0
 17 25  1  0
 25 26  2  0
 25 27  1  0
 27 28  1  0
 28 29  1  0
 29 30  1  0
 30 31  1  0
 31 32  1  0
 32 33  1  0
 33 34  1  0
 27 35  1  0
 35 36  2  0
 11  6  1  0
 16 12  1  0
 24 19  1  0
 34 29  1  0
 35 14  1  0
  4 37  1  0
  5 38  1  0
  7 39  1  0
  8 40  1  0
 10 41  1  0
 11 42  1  0
 16 43  1  0
 18 44  1  0
 18 45  1  0
 19 46  1  0
 20 47  1  0
 20 48  1  0
 21 49  1  0
 21 50  1  0
 22 51  1  0
 22 52  1  0
 23 53  1  0
 23 54  1  0
 24 55  1  0
 24 56  1  0
 28 57  1  0
 28 58  1  0
 29 59  1  0
 30 60  1  0
 30 61  1  0
 31 62  1  0
 31 63  1  0
 32 64  1  0
 32 65  1  0
 33 66  1  0
 33 67  1  0
 34 68  1  0
 34 69  1  0
M  CHG  1   1  -1
M  END
>  <Original_Name>  (119) 
CHEMBL17103

>  <ROSHAMBO_ComboTanimoto>  (119) 
0.706

>  <ROSHAMBO_ShapeTanimoto>  (119) 
0.542

>  <ROSHAMBO_ColorTanimoto>  (119) 
0.164

>  <ROSHAMBO_FitTverskyCombo>  (119) 
0.841

>  <ROSHAMBO_FitTversky>  (119) 
0.613

>  <ROSHAMBO_FitColorTversky>  (119) 
0.228

>  <ROSHAMBO_RefTverskyCombo>  (119) 
1.192

>  <ROSHAMBO_RefTversky>  (119) 
0.824

>  <ROSHAMBO_RefColorTversky>  (119) 
0.368

>  <ROSHAMBO_Overlap>  (119) 
1033.819

$$$$
CHEMBL483242_0_76
     RDKit          3D

 54 56  0  0  0  0  0  0  0  0999 V2000
    4.9313    3.5836   -0.2842 C   0  0  0  0  0  0  0  0  0  0  0  0
    4.6647    2.8194    0.9966 C   0  0  0  0  0  0  0  0  0  0  0  0
    4.0599    1.5562    0.6407 N   0  0  0  0  0  0  0  0  0  0  0  0
    2.6241    1.4514    0.5394 C   0  0  0  0  0  0  0  0  0  0  0  0
    1.8957    2.0697    1.3628 O   0  0  0  0  0  0  0  0  0  0  0  0
    2.1146    0.5916   -0.5667 C   0  0  0  0  0  0  0  0  0  0  0  0
    2.8115   -0.7011   -0.6676 C   0  0  0  0  0  0  0  0  0  0  0  0
    1.8347   -1.6420   -0.2879 N   0  0  0  0  0  0  0  0  0  0  0  0
    0.5904   -1.1335   -0.2500 C   0  0  0  0  0  0  0  0  0  0  0  0
   -0.4795   -2.0168    0.1159 C   0  0  0  0  0  0  0  0  0  0  0  0
   -1.7296   -2.0737    0.1511 C   0  0  0  0  0  0  0  0  0  0  0  0
   -2.8335   -1.2491   -0.1954 C   0  0  0  0  0  0  0  0  0  0  0  0
   -2.8989   -0.3033   -1.1947 C   0  0  0  0  0  0  0  0  0  0  0  0
   -3.9877    0.5048   -1.4144 C   0  0  0  0  0  0  0  0  0  0  0  0
   -5.1169    0.4040   -0.6141 C   0  0  0  0  0  0  0  0  0  0  0  0
   -6.2053    1.2173   -0.8393 O   0  0  0  0  0  0  0  0  0  0  0  0
   -6.1927    2.1554   -1.8741 C   0  0  0  0  0  0  0  0  0  0  0  0
   -5.1006   -0.5255    0.3937 C   0  0  0  0  0  0  0  0  0  0  0  0
   -6.2354   -0.6182    1.1867 O   0  0  0  0  0  0  0  0  0  0  0  0
   -6.2438   -1.5684    2.2322 C   0  0  0  0  0  0  0  0  0  0  0  0
   -4.0177   -1.3079    0.5905 C   0  0  0  0  0  0  0  0  0  0  0  0
    0.6954    0.2515   -0.3887 N   0  0  0  0  0  0  0  0  0  0  0  0
   -0.3092    1.2761   -0.3103 C   0  0  0  0  0  0  0  0  0  0  0  0
    4.0584   -0.8112    0.0610 N   0  0  0  0  0  0  0  0  0  0  0  0
    4.5871   -2.1070    0.4644 C   0  0  0  0  0  0  0  0  0  0  0  0
    5.4774   -2.7149   -0.5673 C   0  0  0  0  0  0  0  0  0  0  0  0
    4.7915    0.3619    0.3867 C   0  0  0  0  0  0  0  0  0  0  0  0
    6.0477    0.3686    0.4544 O   0  0  0  0  0  0  0  0  0  0  0  0
    5.2846    4.5963   -0.0402 H   0  0  0  0  0  0  0  0  0  0  0  0
    5.6994    3.0588   -0.8712 H   0  0  0  0  0  0  0  0  0  0  0  0
    4.0034    3.6505   -0.8712 H   0  0  0  0  0  0  0  0  0  0  0  0
    5.6100    2.6442    1.5311 H   0  0  0  0  0  0  0  0  0  0  0  0
    3.9953    3.3937    1.6539 H   0  0  0  0  0  0  0  0  0  0  0  0
    2.2851    1.1969   -1.4692 H   0  0  0  0  0  0  0  0  0  0  0  0
    3.1834   -0.8640   -1.6899 H   0  0  0  0  0  0  0  0  0  0  0  0
   -0.0604   -2.9617    0.4920 H   0  0  0  0  0  0  0  0  0  0  0  0
   -2.0694   -3.0332    0.5680 H   0  0  0  0  0  0  0  0  0  0  0  0
   -2.0275   -0.1884   -1.8561 H   0  0  0  0  0  0  0  0  0  0  0  0
   -3.9643    1.2392   -2.2331 H   0  0  0  0  0  0  0  0  0  0  0  0
   -6.1790    3.1699   -1.4491 H   0  0  0  0  0  0  0  0  0  0  0  0
   -5.2965    2.0055   -2.4940 H   0  0  0  0  0  0  0  0  0  0  0  0
   -7.0926    2.0297   -2.4940 H   0  0  0  0  0  0  0  0  0  0  0  0
   -6.2392   -1.0476    3.2011 H   0  0  0  0  0  0  0  0  0  0  0  0
   -7.1474   -2.1908    2.1548 H   0  0  0  0  0  0  0  0  0  0  0  0
   -5.3512   -2.2066    2.1548 H   0  0  0  0  0  0  0  0  0  0  0  0
   -4.0536   -2.0383    1.4121 H   0  0  0  0  0  0  0  0  0  0  0  0
   -0.5259    1.4971    0.7453 H   0  0  0  0  0  0  0  0  0  0  0  0
    0.0559    2.1865   -0.8081 H   0  0  0  0  0  0  0  0  0  0  0  0
   -1.2267    0.9289   -0.8081 H   0  0  0  0  0  0  0  0  0  0  0  0
    5.1623   -1.9782    1.3931 H   0  0  0  0  0  0  0  0  0  0  0  0
    3.7319   -2.7845    0.6046 H   0  0  0  0  0  0  0  0  0  0  0  0
    6.2883   -3.2687   -0.0716 H   0  0  0  0  0  0  0  0  0  0  0  0
    4.8935   -3.4038   -1.1955 H   0  0  0  0  0  0  0  0  0  0  0  0
    5.9065   -1.9204   -1.1955 H   0  0  0  0  0  0  0  0  0  0  0  0
  1  2  1  0
  2  3  1  0
  3  4  1  0
  4  5  2  0
  4  6  1  0
  6  7  1  0
  7  8  1  0
  8  9  2  0
  9 10  1  0
 10 11  2  3
 11 12  1  0
 12 13  2  0
 13 14  1  0
 14 15  2  0
 15 16  1  0
 16 17  1  0
 15 18  1  0
 18 19  1  0
 19 20  1  0
 18 21  2  0
  9 22  1  0
 22 23  1  0
  7 24  1  0
 24 25  1  0
 25 26  1  0
 24 27  1  0
 27 28  2  0
 27  3  1  0
 22  6  1  0
 21 12  1  0
  1 29  1  0
  1 30  1  0
  1 31  1  0
  2 32  1  0
  2 33  1  0
  6 34  1  0
  7 35  1  0
 10 36  1  0
 11 37  1  0
 13 38  1  0
 14 39  1  0
 17 40  1  0
 17 41  1  0
 17 42  1  0
 20 43  1  0
 20 44  1  0
 20 45  1  0
 21 46  1  0
 23 47  1  0
 23 48  1  0
 23 49  1  0
 25 50  1  0
 25 51  1  0
 26 52  1  0
 26 53  1  0
 26 54  1  0
M  END
>  <Original_Name>  (120) 
CHEMBL483242

>  <ROSHAMBO_ComboTanimoto>  (120) 
0.671

>  <ROSHAMBO_ShapeTanimoto>  (120) 
0.646

>  <ROSHAMBO_ColorTanimoto>  (120) 
0.025

>  <ROSHAMBO_FitTverskyCombo>  (120) 
0.814

>  <ROSHAMBO_FitTversky>  (120) 
0.764

>  <ROSHAMBO_FitColorTversky>  (120) 
0.049

>  <ROSHAMBO_RefTverskyCombo>  (120) 
0.856

>  <ROSHAMBO_RefTversky>  (120) 
0.806

>  <ROSHAMBO_RefColorTversky>  (120) 
0.05

>  <ROSHAMBO_Overlap>  (120) 
994.674

$$$$
CHEMBL483242_0_65
     RDKit          3D

 54 56  0  0  0  0  0  0  0  0999 V2000
   -5.2506   -0.4080   -0.8019 C   0  0  0  0  0  0  0  0  0  0  0  0
   -3.9286    0.1240   -1.3343 C   0  0  0  0  0  0  0  0  0  0  0  0
   -2.8735   -0.4137   -0.4909 N   0  0  0  0  0  0  0  0  0  0  0  0
   -2.4546    0.3016    0.6615 C   0  0  0  0  0  0  0  0  0  0  0  0
   -3.2151    1.1145    1.2464 O   0  0  0  0  0  0  0  0  0  0  0  0
   -1.1012    0.0818    1.1760 C   0  0  0  0  0  0  0  0  0  0  0  0
   -0.6012   -1.3180    1.0896 C   0  0  0  0  0  0  0  0  0  0  0  0
    0.8429   -1.1578    0.8631 N   0  0  0  0  0  0  0  0  0  0  0  0
    1.1000    0.0459    0.4833 C   0  0  0  0  0  0  0  0  0  0  0  0
    2.4417    0.5971    0.1571 C   0  0  0  0  0  0  0  0  0  0  0  0
    3.4721   -0.1984    0.2586 C   0  0  0  0  0  0  0  0  0  0  0  0
    4.8174    0.2550   -0.0398 C   0  0  0  0  0  0  0  0  0  0  0  0
    5.0999    1.5404   -0.4464 C   0  0  0  0  0  0  0  0  0  0  0  0
    6.4074    1.9568   -0.7295 C   0  0  0  0  0  0  0  0  0  0  0  0
    7.4358    1.0509   -0.5959 C   0  0  0  0  0  0  0  0  0  0  0  0
    8.7551    1.4246   -0.8681 O   0  0  0  0  0  0  0  0  0  0  0  0
    9.0212    2.7502   -1.2843 C   0  0  0  0  0  0  0  0  0  0  0  0
    7.2050   -0.2514   -0.1908 C   0  0  0  0  0  0  0  0  0  0  0  0
    8.2703   -1.1623   -0.0603 O   0  0  0  0  0  0  0  0  0  0  0  0
    7.9433   -2.4732    0.3592 C   0  0  0  0  0  0  0  0  0  0  0  0
    5.9095   -0.6133    0.0750 C   0  0  0  0  0  0  0  0  0  0  0  0
   -0.0976    0.7991    0.4112 N   0  0  0  0  0  0  0  0  0  0  0  0
   -0.2486    2.0552   -0.3085 C   0  0  0  0  0  0  0  0  0  0  0  0
   -1.2038   -2.1368    0.0867 N   0  0  0  0  0  0  0  0  0  0  0  0
   -0.7231   -3.5248   -0.0386 C   0  0  0  0  0  0  0  0  0  0  0  0
    0.4191   -3.6322   -1.0028 C   0  0  0  0  0  0  0  0  0  0  0  0
   -2.2282   -1.6450   -0.7642 C   0  0  0  0  0  0  0  0  0  0  0  0
   -2.5806   -2.3094   -1.7892 O   0  0  0  0  0  0  0  0  0  0  0  0
   -5.2325   -0.4008    0.2979 H   0  0  0  0  0  0  0  0  0  0  0  0
   -6.0729    0.2292   -1.1593 H   0  0  0  0  0  0  0  0  0  0  0  0
   -5.4023   -1.4372   -1.1593 H   0  0  0  0  0  0  0  0  0  0  0  0
   -3.7826   -0.2037   -2.3741 H   0  0  0  0  0  0  0  0  0  0  0  0
   -3.9171    1.2238   -1.3178 H   0  0  0  0  0  0  0  0  0  0  0  0
   -1.2160    0.4113    2.2192 H   0  0  0  0  0  0  0  0  0  0  0  0
   -0.8592   -1.8654    2.0081 H   0  0  0  0  0  0  0  0  0  0  0  0
    2.5626    1.6433   -0.1602 H   0  0  0  0  0  0  0  0  0  0  0  0
    3.3160   -1.2391    0.5787 H   0  0  0  0  0  0  0  0  0  0  0  0
    4.2753    2.2607   -0.5518 H   0  0  0  0  0  0  0  0  0  0  0  0
    6.6087    2.9887   -1.0528 H   0  0  0  0  0  0  0  0  0  0  0  0
    9.1503    3.3929   -0.4010 H   0  0  0  0  0  0  0  0  0  0  0  0
    9.9407    2.7674   -1.8878 H   0  0  0  0  0  0  0  0  0  0  0  0
    8.1796    3.1210   -1.8878 H   0  0  0  0  0  0  0  0  0  0  0  0
    7.9330   -2.5146    1.4584 H   0  0  0  0  0  0  0  0  0  0  0  0
    6.9499   -2.7448   -0.0273 H   0  0  0  0  0  0  0  0  0  0  0  0
    8.6928   -3.1795   -0.0273 H   0  0  0  0  0  0  0  0  0  0  0  0
    5.7169   -1.6472    0.3977 H   0  0  0  0  0  0  0  0  0  0  0  0
   -0.3478    2.8808    0.4116 H   0  0  0  0  0  0  0  0  0  0  0  0
    0.6357    2.2243   -0.9406 H   0  0  0  0  0  0  0  0  0  0  0  0
   -1.1477    2.0099   -0.9406 H   0  0  0  0  0  0  0  0  0  0  0  0
   -0.3902   -3.8770    0.9489 H   0  0  0  0  0  0  0  0  0  0  0  0
   -1.5513   -4.1410   -0.4189 H   0  0  0  0  0  0  0  0  0  0  0  0
    1.3629   -3.7209   -0.4447 H   0  0  0  0  0  0  0  0  0  0  0  0
    0.2824   -4.5215   -1.6357 H   0  0  0  0  0  0  0  0  0  0  0  0
    0.4505   -2.7331   -1.6357 H   0  0  0  0  0  0  0  0  0  0  0  0
  1  2  1  0
  2  3  1  0
  3  4  1  0
  4  5  2  0
  4  6  1  0
  6  7  1  0
  7  8  1  0
  8  9  2  0
  9 10  1  0
 10 11  2  3
 11 12  1  0
 12 13  2  0
 13 14  1  0
 14 15  2  0
 15 16  1  0
 16 17  1  0
 15 18  1  0
 18 19  1  0
 19 20  1  0
 18 21  2  0
  9 22  1  0
 22 23  1  0
  7 24  1  0
 24 25  1  0
 25 26  1  0
 24 27  1  0
 27 28  2  0
 27  3  1  0
 22  6  1  0
 21 12  1  0
  1 29  1  0
  1 30  1  0
  1 31  1  0
  2 32  1  0
  2 33  1  0
  6 34  1  0
  7 35  1  0
 10 36  1  0
 11 37  1  0
 13 38  1  0
 14 39  1  0
 17 40  1  0
 17 41  1  0
 17 42  1  0
 20 43  1  0
 20 44  1  0
 20 45  1  0
 21 46  1  0
 23 47  1  0
 23 48  1  0
 23 49  1  0
 25 50  1  0
 25 51  1  0
 26 52  1  0
 26 53  1  0
 26 54  1  0
M  END
>  <Original_Name>  (121) 
CHEMBL483242

>  <ROSHAMBO_ComboTanimoto>  (121) 
0.658

>  <ROSHAMBO_ShapeTanimoto>  (121) 
0.564

>  <ROSHAMBO_ColorTanimoto>  (121) 
0.094

>  <ROSHAMBO_FitTverskyCombo>  (121) 
0.875

>  <ROSHAMBO_FitTversky>  (121) 
0.703

>  <ROSHAMBO_FitColorTversky>  (121) 
0.172

>  <ROSHAMBO_RefTverskyCombo>  (121) 
0.913

>  <ROSHAMBO_RefTversky>  (121) 
0.74

>  <ROSHAMBO_RefColorTversky>  (121) 
0.173

>  <ROSHAMBO_Overlap>  (121) 
912.874

$$$$
