_0
     RDKit          3D

 40 43  0  0  1  0  0  0  0  0999 V2000
   -5.3045   -0.8512    0.4342 C   0  0  0  0  0  0  0  0  0  0  0  0
   -6.4676   -0.1532    0.7342 C   0  0  0  0  0  0  0  0  0  0  0  0
   -6.7592    1.0295    0.0661 C   0  0  0  0  0  0  0  0  0  0  0  0
   -7.8941    1.7186    0.3555 O   0  0  0  0  0  0  0  0  0  0  0  0
   -5.8872    1.5144   -0.9012 C   0  0  0  0  0  0  0  0  0  0  0  0
   -4.7264    0.8156   -1.2034 C   0  0  0  0  0  0  0  0  0  0  0  0
   -4.4365   -0.3692   -0.5401 C   0  0  0  0  0  0  0  0  0  0  0  0
   -3.1522   -1.1301   -0.8623 C   0  0  0  0  0  0  0  0  0  0  0  0
   -2.4894   -1.5855    0.4346 C   0  0  0  0  0  0  0  0  0  0  0  0
   -1.2040   -2.2403    0.1610 N   0  0  0  0  0  0  0  0  0  0  0  0
   -0.1480   -1.4345    0.1752 C   0  0  0  0  0  0  0  0  0  0  0  0
    1.0949   -1.9004   -0.0285 N   0  0  0  0  0  0  0  0  0  0  0  0
   -0.3693   -0.1359    0.4349 N   0  0  0  0  0  0  0  0  0  0  0  0
    0.6353    0.7462    0.4774 C   0  0  0  0  0  0  0  0  0  0  0  0
    0.3890    2.0306    0.7257 N   0  0  0  0  0  0  0  0  0  0  0  0
    1.9357    0.2953    0.2635 N   0  0  0  0  0  0  0  0  0  0  0  0
    3.0245    0.8705    0.2467 N   0  0  0  0  0  0  0  0  0  0  0  0
    2.1410   -1.0594    0.0077 C   0  0  0  0  0  0  0  0  0  0  0  0
    3.4484   -1.2207   -0.1572 N   0  0  0  0  0  0  0  0  0  0  0  0
    3.9941   -0.0123   -0.0032 C   0  0  0  0  0  0  0  0  0  0  0  0
    5.3445    0.2963   -0.0977 C   0  0  0  0  0  0  0  0  0  0  0  0
    6.3731   -0.5130   -0.3278 C   0  0  0  0  0  0  0  0  0  0  0  0
    7.4837    0.2226   -0.3333 C   0  0  0  0  0  0  0  0  0  0  0  0
    7.1658    1.4981   -0.1079 C   0  0  0  0  0  0  0  0  0  0  0  0
    5.8083    1.5679    0.0458 O   0  0  0  0  0  0  0  0  0  0  0  0
   -5.0701   -1.7846    0.9669 H   0  0  0  0  0  0  0  0  0  0  0  0
   -7.1574   -0.5368    1.5004 H   0  0  0  0  0  0  0  0  0  0  0  0
   -8.0975    2.5609   -0.1233 H   0  0  0  0  0  0  0  0  0  0  0  0
   -6.1169    2.4524   -1.4277 H   0  0  0  0  0  0  0  0  0  0  0  0
   -4.0362    1.2006   -1.9685 H   0  0  0  0  0  0  0  0  0  0  0  0
   -3.3919   -2.0087   -1.4792 H   0  0  0  0  0  0  0  0  0  0  0  0
   -2.4647   -0.4709   -1.4126 H   0  0  0  0  0  0  0  0  0  0  0  0
   -2.3185   -0.7104    1.0789 H   0  0  0  0  0  0  0  0  0  0  0  0
   -3.1527   -2.3060    0.9355 H   0  0  0  0  0  0  0  0  0  0  0  0
   -1.1268   -3.2498   -0.0279 H   0  0  0  0  0  0  0  0  0  0  0  0
    1.1651    2.7070    0.7577 H   0  0  0  0  0  0  0  0  0  0  0  0
   -0.5777    2.3480    0.8859 H   0  0  0  0  0  0  0  0  0  0  0  0
    6.3173   -1.6002   -0.4859 H   0  0  0  0  0  0  0  0  0  0  0  0
    8.5014   -0.1610   -0.4976 H   0  0  0  0  0  0  0  0  0  0  0  0
    7.8689    2.3424   -0.0551 H   0  0  0  0  0  0  0  0  0  0  0  0
  1  2  2  0
  1  7  1  0
  2  3  1  0
  3  4  1  0
  3  5  2  0
  5  6  1  0
  6  7  2  0
  7  8  1  0
  8  9  1  0
  9 10  1  0
 10 11  1  0
 11 12  2  0
 11 13  1  0
 12 18  1  0
 13 14  2  0
 14 15  1  0
 14 16  1  0
 16 17  1  0
 16 18  1  0
 17 20  2  0
 18 19  2  0
 19 20  1  0
 20 21  1  0
 21 22  2  0
 21 25  1  0
 22 23  1  0
 23 24  2  0
 24 25  1  0
  1 26  1  0
  2 27  1  0
  4 28  1  0
  5 29  1  0
  6 30  1  0
  8 31  1  0
  8 32  1  0
  9 33  1  0
  9 34  1  0
 10 35  1  0
 15 36  1  0
 15 37  1  0
 22 38  1  0
 23 39  1  0
 24 40  1  0
M  END
>  <s_pdb_PDB_format_version>  (1) 
3.0

>  <Original_Name>  (1) 


$$$$
CHEMBL369070_0_71
     RDKit          3D

 50 54  0  0  0  0  0  0  0  0999 V2000
    0.7655    2.3555    0.9817 N   0  0  0  0  0  0  0  0  0  0  0  0
    0.9129    0.9817    0.6829 C   0  0  0  0  0  0  0  0  0  0  0  0
   -0.1642    0.1889    0.7296 N   0  0  0  0  0  0  0  0  0  0  0  0
   -0.1248   -1.1244    0.4631 C   0  0  0  0  0  0  0  0  0  0  0  0
   -1.3030   -1.8911    0.5342 N   0  0  0  0  0  0  0  0  0  0  0  0
   -2.5875   -1.3271    0.8604 C   0  0  0  0  0  0  0  0  0  0  0  0
   -2.9865   -0.3474   -0.1761 C   0  0  1  0  0  0  0  0  0  0  0  0
   -3.0996   -0.9358   -1.5580 C   0  0  0  0  0  0  0  0  0  0  0  0
   -4.0235    0.0457   -2.2565 C   0  0  0  0  0  0  0  0  0  0  0  0
   -4.4402    1.0242   -1.1493 C   0  0  0  0  0  0  0  0  0  0  0  0
   -4.3022    0.2331    0.0529 N   0  0  0  0  0  0  0  0  0  0  0  0
   -5.3348   -0.7383    0.1142 C   0  0  0  0  0  0  0  0  0  0  0  0
   -6.6569   -0.0741    0.1543 C   0  0  0  0  0  0  0  0  0  0  0  0
   -7.4555    0.1966   -0.9129 C   0  0  0  0  0  0  0  0  0  0  0  0
   -8.6638    0.8297   -0.7121 C   0  0  0  0  0  0  0  0  0  0  0  0
   -9.1130    1.2074    0.5199 C   0  0  0  0  0  0  0  0  0  0  0  0
   -8.3216    0.9383    1.5728 N   0  0  0  0  0  0  0  0  0  0  0  0
   -7.1469    0.3262    1.4043 C   0  0  0  0  0  0  0  0  0  0  0  0
    1.0710   -1.6534    0.1333 N   0  0  0  0  0  0  0  0  0  0  0  0
    2.1813   -0.9022    0.0722 C   0  0  0  0  0  0  0  0  0  0  0  0
    3.4784   -1.1815   -0.2273 N   0  0  0  0  0  0  0  0  0  0  0  0
    4.1777   -0.0538   -0.1366 C   0  0  0  0  0  0  0  0  0  0  0  0
    5.6252    0.1442   -0.3701 C   0  0  0  0  0  0  0  0  0  0  0  0
    6.4689   -0.7161   -1.0361 C   0  0  0  0  0  0  0  0  0  0  0  0
    7.7349   -0.1420   -1.0225 C   0  0  0  0  0  0  0  0  0  0  0  0
    7.5951    1.0510   -0.3415 C   0  0  0  0  0  0  0  0  0  0  0  0
    6.3548    1.1610    0.0104 O   0  0  0  0  0  0  0  0  0  0  0  0
    3.3086    0.9093    0.2172 N   0  0  0  0  0  0  0  0  0  0  0  0
    2.0924    0.4318    0.3521 N   0  0  0  0  0  0  0  0  0  0  0  0
    1.5840    2.9800    0.9505 H   0  0  0  0  0  0  0  0  0  0  0  0
   -0.1603    2.7320    1.2305 H   0  0  0  0  0  0  0  0  0  0  0  0
   -1.2439   -2.9017    0.3443 H   0  0  0  0  0  0  0  0  0  0  0  0
   -3.3367   -2.1310    0.9099 H   0  0  0  0  0  0  0  0  0  0  0  0
   -2.5227   -0.8183    1.8335 H   0  0  0  0  0  0  0  0  0  0  0  0
   -2.1792    0.3966   -0.1073 H   0  0  0  0  0  0  0  0  0  0  0  0
   -2.1183   -0.9797   -2.0532 H   0  0  0  0  0  0  0  0  0  0  0  0
   -3.4717   -1.9709   -1.5656 H   0  0  0  0  0  0  0  0  0  0  0  0
   -3.4942    0.5727   -3.0640 H   0  0  0  0  0  0  0  0  0  0  0  0
   -4.8855   -0.4494   -2.7275 H   0  0  0  0  0  0  0  0  0  0  0  0
   -3.7751    1.9000   -1.1248 H   0  0  0  0  0  0  0  0  0  0  0  0
   -5.4535    1.4293   -1.2877 H   0  0  0  0  0  0  0  0  0  0  0  0
   -5.2793   -1.3847   -0.7741 H   0  0  0  0  0  0  0  0  0  0  0  0
   -5.2075   -1.3418    1.0251 H   0  0  0  0  0  0  0  0  0  0  0  0
   -7.1401   -0.0872   -1.9277 H   0  0  0  0  0  0  0  0  0  0  0  0
   -9.2962    1.0405   -1.5871 H   0  0  0  0  0  0  0  0  0  0  0  0
  -10.0826    1.7112    0.6463 H   0  0  0  0  0  0  0  0  0  0  0  0
   -6.5315    0.1256    2.2938 H   0  0  0  0  0  0  0  0  0  0  0  0
    6.1928   -1.6777   -1.4935 H   0  0  0  0  0  0  0  0  0  0  0  0
    8.6558   -0.5524   -1.4624 H   0  0  0  0  0  0  0  0  0  0  0  0
    8.3947    1.7776   -0.1351 H   0  0  0  0  0  0  0  0  0  0  0  0
  1  2  1  0
  2  3  2  0
  3  4  1  0
  4  5  1  0
  5  6  1  0
  6  7  1  0
  7  8  1  0
  8  9  1  0
  9 10  1  0
 10 11  1  0
 11 12  1  0
 12 13  1  0
 13 14  2  0
 14 15  1  0
 15 16  2  0
 16 17  1  0
 17 18  2  0
  4 19  2  0
 19 20  1  0
 20 21  2  0
 21 22  1  0
 22 23  1  0
 23 24  2  0
 24 25  1  0
 25 26  2  0
 26 27  1  0
 22 28  2  0
 28 29  1  0
 29  2  1  0
 11  7  1  0
 18 13  1  0
 29 20  1  0
 27 23  1  0
  1 30  1  0
  1 31  1  0
  5 32  1  0
  6 33  1  0
  6 34  1  0
  7 35  1  6
  8 36  1  0
  8 37  1  0
  9 38  1  0
  9 39  1  0
 10 40  1  0
 10 41  1  0
 12 42  1  0
 12 43  1  0
 14 44  1  0
 15 45  1  0
 16 46  1  0
 18 47  1  0
 24 48  1  0
 25 49  1  0
 26 50  1  0
M  END
>  <Original_Name>  (2) 
CHEMBL369070

>  <ROSHAMBO_ComboTanimoto>  (2) 
1.403

>  <ROSHAMBO_ShapeTanimoto>  (2) 
0.792

>  <ROSHAMBO_ColorTanimoto>  (2) 
0.612

>  <ROSHAMBO_FitTverskyCombo>  (2) 
1.56

>  <ROSHAMBO_FitTversky>  (2) 
0.83

>  <ROSHAMBO_FitColorTversky>  (2) 
0.731

>  <ROSHAMBO_RefTverskyCombo>  (2) 
1.735

>  <ROSHAMBO_RefTversky>  (2) 
0.945

>  <ROSHAMBO_RefColorTversky>  (2) 
0.79

>  <ROSHAMBO_Overlap>  (2) 
1172.369

$$$$
CHEMBL1093480_0_84
     RDKit          3D

 39 43  0  0  0  0  0  0  0  0999 V2000
   -2.2441   -4.0660    0.1210 S   0  0  0  0  0  0  0  0  0  0  0  0
   -1.2172   -2.8437    0.2023 C   0  0  0  0  0  0  0  0  0  0  0  0
    0.6205   -2.9754   -0.0623 S   0  0  0  0  0  0  0  0  0  0  0  0
    0.9357   -1.1979    0.2106 C   0  0  0  0  0  0  0  0  0  0  0  0
   -0.3070   -0.7509    0.4528 C   0  0  0  0  0  0  0  0  0  0  0  0
   -0.3470    0.6308    0.7021 N   0  0  0  0  0  0  0  0  0  0  0  0
    0.7751    1.3609    0.6838 C   0  0  0  0  0  0  0  0  0  0  0  0
    2.0049    0.8967    0.4403 N   0  0  0  0  0  0  0  0  0  0  0  0
    3.2308    1.3364    0.3570 N   0  0  0  0  0  0  0  0  0  0  0  0
    4.0812    0.3315    0.0677 C   0  0  0  0  0  0  0  0  0  0  0  0
    5.5269    0.3861   -0.1125 C   0  0  0  0  0  0  0  0  0  0  0  0
    6.3011   -0.4600   -0.8932 C   0  0  0  0  0  0  0  0  0  0  0  0
    7.6150   -0.0581   -0.7817 C   0  0  0  0  0  0  0  0  0  0  0  0
    7.5865    1.0271    0.0711 C   0  0  0  0  0  0  0  0  0  0  0  0
    6.3444    1.2542    0.4401 O   0  0  0  0  0  0  0  0  0  0  0  0
    3.3352   -0.7853   -0.0316 N   0  0  0  0  0  0  0  0  0  0  0  0
    2.0691   -0.4469    0.1944 C   0  0  0  0  0  0  0  0  0  0  0  0
   -1.3583   -1.5160    0.4556 N   0  0  0  0  0  0  0  0  0  0  0  0
   -2.7713   -1.0545    0.7225 C   0  0  0  0  0  0  0  0  0  0  0  0
   -3.3368   -0.6973   -0.6056 C   0  0  0  0  0  0  0  0  0  0  0  0
   -4.7300   -0.2186   -0.5407 C   0  0  0  0  0  0  0  0  0  0  0  0
   -5.0046    1.1145   -0.3770 C   0  0  0  0  0  0  0  0  0  0  0  0
   -6.3185    1.5871   -0.3132 C   0  0  0  0  0  0  0  0  0  0  0  0
   -7.3485    0.6899   -0.4176 C   0  0  0  0  0  0  0  0  0  0  0  0
   -7.0782   -0.6443   -0.5815 C   0  0  0  0  0  0  0  0  0  0  0  0
   -5.7704   -1.1076   -0.6441 C   0  0  0  0  0  0  0  0  0  0  0  0
    0.6765    2.4375    0.8869 H   0  0  0  0  0  0  0  0  0  0  0  0
    5.9316   -1.3031   -1.4954 H   0  0  0  0  0  0  0  0  0  0  0  0
    8.4951   -0.5052   -1.2669 H   0  0  0  0  0  0  0  0  0  0  0  0
    8.4631    1.6094    0.3912 H   0  0  0  0  0  0  0  0  0  0  0  0
   -3.3577   -1.8627    1.1841 H   0  0  0  0  0  0  0  0  0  0  0  0
   -2.7949   -0.2011    1.4161 H   0  0  0  0  0  0  0  0  0  0  0  0
   -2.7159    0.0963   -1.0467 H   0  0  0  0  0  0  0  0  0  0  0  0
   -3.3369   -1.6132   -1.2149 H   0  0  0  0  0  0  0  0  0  0  0  0
   -4.1720    1.8285   -0.2939 H   0  0  0  0  0  0  0  0  0  0  0  0
   -6.5218    2.6601   -0.1815 H   0  0  0  0  0  0  0  0  0  0  0  0
   -8.3905    1.0393   -0.3701 H   0  0  0  0  0  0  0  0  0  0  0  0
   -7.9103   -1.3590   -0.6646 H   0  0  0  0  0  0  0  0  0  0  0  0
   -5.5696   -2.1811   -0.7759 H   0  0  0  0  0  0  0  0  0  0  0  0
  1  2  2  0
  2  3  1  0
  3  4  1  0
  4  5  2  0
  5  6  1  0
  6  7  2  0
  7  8  1  0
  8  9  1  0
  9 10  2  0
 10 11  1  0
 11 12  2  0
 12 13  1  0
 13 14  2  0
 14 15  1  0
 10 16  1  0
 16 17  2  0
  5 18  1  0
 18 19  1  0
 19 20  1  0
 20 21  1  0
 21 22  2  0
 22 23  1  0
 23 24  2  0
 24 25  1  0
 25 26  2  0
 18  2  1  0
 26 21  1  0
 17  4  1  0
 17  8  1  0
 15 11  1  0
  7 27  1  0
 12 28  1  0
 13 29  1  0
 14 30  1  0
 19 31  1  0
 19 32  1  0
 20 33  1  0
 20 34  1  0
 22 35  1  0
 23 36  1  0
 24 37  1  0
 25 38  1  0
 26 39  1  0
M  END
>  <Original_Name>  (3) 
CHEMBL1093480

>  <ROSHAMBO_ComboTanimoto>  (3) 
1.36

>  <ROSHAMBO_ShapeTanimoto>  (3) 
0.839

>  <ROSHAMBO_ColorTanimoto>  (3) 
0.522

>  <ROSHAMBO_FitTverskyCombo>  (3) 
1.652

>  <ROSHAMBO_FitTversky>  (3) 
0.902

>  <ROSHAMBO_FitColorTversky>  (3) 
0.75

>  <ROSHAMBO_RefTverskyCombo>  (3) 
1.554

>  <ROSHAMBO_RefTversky>  (3) 
0.922

>  <ROSHAMBO_RefColorTversky>  (3) 
0.632

>  <ROSHAMBO_Overlap>  (3) 
1136.238

$$$$
CHEMBL175564_0_99
     RDKit          3D

 50 54  0  0  0  0  0  0  0  0999 V2000
    0.6746    2.2488    1.3524 N   0  0  0  0  0  0  0  0  0  0  0  0
    0.7075    0.9175    0.8402 C   0  0  0  0  0  0  0  0  0  0  0  0
   -0.3677    0.1515    0.7090 N   0  0  0  0  0  0  0  0  0  0  0  0
   -0.3444   -1.1031    0.2273 C   0  0  0  0  0  0  0  0  0  0  0  0
   -1.5311   -1.8928    0.1037 N   0  0  0  0  0  0  0  0  0  0  0  0
   -2.8208   -1.4139    0.4750 C   0  0  0  0  0  0  0  0  0  0  0  0
   -3.2454   -0.2046   -0.2981 C   0  0  1  0  0  0  0  0  0  0  0  0
   -3.3306   -0.3919   -1.7651 C   0  0  0  0  0  0  0  0  0  0  0  0
   -4.2691    0.7184   -2.1854 C   0  0  0  0  0  0  0  0  0  0  0  0
   -4.7640    1.3157   -0.8646 C   0  0  0  0  0  0  0  0  0  0  0  0
   -4.5893    0.1997    0.0450 N   0  0  0  0  0  0  0  0  0  0  0  0
   -5.5763   -0.7839   -0.2638 C   0  0  0  0  0  0  0  0  0  0  0  0
   -6.9830   -0.2834   -0.1051 C   0  0  0  0  0  0  0  0  0  0  0  0
   -7.6281   -0.3838    1.1099 C   0  0  0  0  0  0  0  0  0  0  0  0
   -8.9118    0.0610    1.2702 C   0  0  0  0  0  0  0  0  0  0  0  0
   -9.5718    0.6197    0.1970 C   0  0  0  0  0  0  0  0  0  0  0  0
   -8.9030    0.7072   -1.0045 C   0  0  0  0  0  0  0  0  0  0  0  0
   -7.6430    0.2632   -1.1356 N   0  0  0  0  0  0  0  0  0  0  0  0
    0.8654   -1.5838   -0.1368 N   0  0  0  0  0  0  0  0  0  0  0  0
    1.9856   -0.8305   -0.0171 C   0  0  0  0  0  0  0  0  0  0  0  0
    3.2993   -1.0467   -0.2959 N   0  0  0  0  0  0  0  0  0  0  0  0
    4.0172    0.0434    0.0122 C   0  0  0  0  0  0  0  0  0  0  0  0
    5.4545    0.2816   -0.1118 C   0  0  0  0  0  0  0  0  0  0  0  0
    6.2226    0.0113   -1.2257 C   0  0  0  0  0  0  0  0  0  0  0  0
    7.5143    0.3829   -0.9221 C   0  0  0  0  0  0  0  0  0  0  0  0
    7.4691    0.8628    0.3658 C   0  0  0  0  0  0  0  0  0  0  0  0
    6.2456    0.7857    0.8026 O   0  0  0  0  0  0  0  0  0  0  0  0
    3.1179    0.9409    0.4887 N   0  0  0  0  0  0  0  0  0  0  0  0
    1.9013    0.4221    0.4729 N   0  0  0  0  0  0  0  0  0  0  0  0
    1.5460    2.7926    1.4294 H   0  0  0  0  0  0  0  0  0  0  0  0
   -0.2204    2.6661    1.6451 H   0  0  0  0  0  0  0  0  0  0  0  0
   -1.4496   -2.8492   -0.2699 H   0  0  0  0  0  0  0  0  0  0  0  0
   -3.5545   -2.2150    0.3018 H   0  0  0  0  0  0  0  0  0  0  0  0
   -2.7692   -1.1233    1.5347 H   0  0  0  0  0  0  0  0  0  0  0  0
   -2.4630    0.5227   -0.0354 H   0  0  0  0  0  0  0  0  0  0  0  0
   -2.3440   -0.2782   -2.2380 H   0  0  0  0  0  0  0  0  0  0  0  0
   -3.6781   -1.3933   -2.0589 H   0  0  0  0  0  0  0  0  0  0  0  0
   -3.7361    1.4750   -2.7799 H   0  0  0  0  0  0  0  0  0  0  0  0
   -5.0930    0.3555   -2.8175 H   0  0  0  0  0  0  0  0  0  0  0  0
   -4.1541    2.1796   -0.5615 H   0  0  0  0  0  0  0  0  0  0  0  0
   -5.7932    1.7017   -0.9063 H   0  0  0  0  0  0  0  0  0  0  0  0
   -5.4354   -1.1047   -1.3065 H   0  0  0  0  0  0  0  0  0  0  0  0
   -5.4433   -1.6134    0.4463 H   0  0  0  0  0  0  0  0  0  0  0  0
   -7.1005   -0.8299    1.9659 H   0  0  0  0  0  0  0  0  0  0  0  0
   -9.4122   -0.0264    2.2459 H   0  0  0  0  0  0  0  0  0  0  0  0
  -10.6042    0.9857    0.2969 H   0  0  0  0  0  0  0  0  0  0  0  0
   -9.4117    1.1499   -1.8736 H   0  0  0  0  0  0  0  0  0  0  0  0
    5.8709   -0.4188   -2.1750 H   0  0  0  0  0  0  0  0  0  0  0  0
    8.3974    0.3108   -1.5739 H   0  0  0  0  0  0  0  0  0  0  0  0
    8.3278    1.2491    0.9345 H   0  0  0  0  0  0  0  0  0  0  0  0
  1  2  1  0
  2  3  2  0
  3  4  1  0
  4  5  1  0
  5  6  1  0
  6  7  1  0
  7  8  1  0
  8  9  1  0
  9 10  1  0
 10 11  1  0
 11 12  1  0
 12 13  1  0
 13 14  2  0
 14 15  1  0
 15 16  2  0
 16 17  1  0
 17 18  2  0
  4 19  2  0
 19 20  1  0
 20 21  2  0
 21 22  1  0
 22 23  1  0
 23 24  2  0
 24 25  1  0
 25 26  2  0
 26 27  1  0
 22 28  2  0
 28 29  1  0
 29  2  1  0
 11  7  1  0
 18 13  1  0
 29 20  1  0
 27 23  1  0
  1 30  1  0
  1 31  1  0
  5 32  1  0
  6 33  1  0
  6 34  1  0
  7 35  1  6
  8 36  1  0
  8 37  1  0
  9 38  1  0
  9 39  1  0
 10 40  1  0
 10 41  1  0
 12 42  1  0
 12 43  1  0
 14 44  1  0
 15 45  1  0
 16 46  1  0
 17 47  1  0
 24 48  1  0
 25 49  1  0
 26 50  1  0
M  END
>  <Original_Name>  (4) 
CHEMBL175564

>  <ROSHAMBO_ComboTanimoto>  (4) 
1.325

>  <ROSHAMBO_ShapeTanimoto>  (4) 
0.743

>  <ROSHAMBO_ColorTanimoto>  (4) 
0.582

>  <ROSHAMBO_FitTverskyCombo>  (4) 
1.509

>  <ROSHAMBO_FitTversky>  (4) 
0.801

>  <ROSHAMBO_FitColorTversky>  (4) 
0.708

>  <ROSHAMBO_RefTverskyCombo>  (4) 
1.676

>  <ROSHAMBO_RefTversky>  (4) 
0.912

>  <ROSHAMBO_RefColorTversky>  (4) 
0.765

>  <ROSHAMBO_Overlap>  (4) 
1130.443

$$$$
CHEMBL354419_0_18
     RDKit          3D

 46 50  0  0  0  0  0  0  0  0999 V2000
    1.1386    2.9115   -0.2443 N   0  0  0  0  0  0  0  0  0  0  0  0
    1.1970    1.4969   -0.1483 C   0  0  0  0  0  0  0  0  0  0  0  0
    0.0994    0.7549   -0.1116 N   0  0  0  0  0  0  0  0  0  0  0  0
    0.0817   -0.6106   -0.0205 C   0  0  0  0  0  0  0  0  0  0  0  0
   -1.1884   -1.3158    0.0218 C   0  0  0  0  0  0  0  0  0  0  0  0
   -1.2504   -2.6731    0.1086 C   0  0  0  0  0  0  0  0  0  0  0  0
   -2.4821   -3.3321    0.1580 C   0  0  0  0  0  0  0  0  0  0  0  0
   -3.6369   -2.5883    0.1177 C   0  0  0  0  0  0  0  0  0  0  0  0
   -3.6152   -1.2227    0.0307 C   0  0  0  0  0  0  0  0  0  0  0  0
   -4.7904   -0.4305    0.0033 N   0  0  0  0  0  0  0  0  0  0  0  0
   -6.0731   -1.0321    0.2786 C   0  0  0  0  0  0  0  0  0  0  0  0
   -6.9959   -0.0545    1.0256 C   0  0  0  0  0  0  0  0  0  0  0  0
   -7.1522    1.1294    0.1516 C   0  0  0  0  0  0  0  0  0  0  0  0
   -8.1168    1.8565    0.2420 O   0  0  0  0  0  0  0  0  0  0  0  0
   -6.0845    1.4032   -0.8456 C   0  0  0  0  0  0  0  0  0  0  0  0
   -4.7242    0.9952   -0.3052 C   0  0  0  0  0  0  0  0  0  0  0  0
   -2.3644   -0.6078   -0.0164 C   0  0  0  0  0  0  0  0  0  0  0  0
    1.3095   -1.2189    0.0345 C   0  0  0  0  0  0  0  0  0  0  0  0
    2.4641   -0.4723   -0.0017 C   0  0  0  0  0  0  0  0  0  0  0  0
    3.7804   -0.8242    0.0394 N   0  0  0  0  0  0  0  0  0  0  0  0
    4.5384    0.2977   -0.0250 C   0  0  0  0  0  0  0  0  0  0  0  0
    5.9929    0.3736   -0.0099 C   0  0  0  0  0  0  0  0  0  0  0  0
    6.9255   -0.5438   -0.4270 C   0  0  0  0  0  0  0  0  0  0  0  0
    8.1737   -0.0063   -0.2058 C   0  0  0  0  0  0  0  0  0  0  0  0
    7.9379    1.2379    0.3467 C   0  0  0  0  0  0  0  0  0  0  0  0
    6.6564    1.4064    0.4377 O   0  0  0  0  0  0  0  0  0  0  0  0
    3.6524    1.3051   -0.1041 N   0  0  0  0  0  0  0  0  0  0  0  0
    2.4041    0.8784   -0.0925 N   0  0  0  0  0  0  0  0  0  0  0  0
    2.0085    3.4623   -0.2708 H   0  0  0  0  0  0  0  0  0  0  0  0
    0.2262    3.3875   -0.2874 H   0  0  0  0  0  0  0  0  0  0  0  0
   -0.3196   -3.2584    0.1403 H   0  0  0  0  0  0  0  0  0  0  0  0
   -2.5263   -4.4289    0.2281 H   0  0  0  0  0  0  0  0  0  0  0  0
   -4.6069   -3.1056    0.1564 H   0  0  0  0  0  0  0  0  0  0  0  0
   -6.5470   -1.3178   -0.6720 H   0  0  0  0  0  0  0  0  0  0  0  0
   -5.9145   -1.9162    0.9136 H   0  0  0  0  0  0  0  0  0  0  0  0
   -7.9744   -0.5220    1.2103 H   0  0  0  0  0  0  0  0  0  0  0  0
   -6.5716    0.2253    2.0012 H   0  0  0  0  0  0  0  0  0  0  0  0
   -6.2936    0.8339   -1.7633 H   0  0  0  0  0  0  0  0  0  0  0  0
   -6.0699    2.4821   -1.0594 H   0  0  0  0  0  0  0  0  0  0  0  0
   -3.9474    1.1812   -1.0614 H   0  0  0  0  0  0  0  0  0  0  0  0
   -4.4712    1.5772    0.5933 H   0  0  0  0  0  0  0  0  0  0  0  0
   -2.3180    0.4890   -0.0869 H   0  0  0  0  0  0  0  0  0  0  0  0
    1.3717   -2.3147    0.1083 H   0  0  0  0  0  0  0  0  0  0  0  0
    6.7132   -1.5322   -0.8607 H   0  0  0  0  0  0  0  0  0  0  0  0
    9.1484   -0.4679   -0.4222 H   0  0  0  0  0  0  0  0  0  0  0  0
    8.7064    1.9614    0.6562 H   0  0  0  0  0  0  0  0  0  0  0  0
  1  2  1  0
  2  3  2  0
  3  4  1  0
  4  5  1  0
  5  6  2  0
  6  7  1  0
  7  8  2  0
  8  9  1  0
  9 10  1  0
 10 11  1  0
 11 12  1  0
 12 13  1  0
 13 14  2  0
 13 15  1  0
 15 16  1  0
  9 17  2  0
  4 18  2  0
 18 19  1  0
 19 20  2  0
 20 21  1  0
 21 22  1  0
 22 23  2  0
 23 24  1  0
 24 25  2  0
 25 26  1  0
 21 27  2  0
 27 28  1  0
 28  2  1  0
 17  5  1  0
 28 19  1  0
 16 10  1  0
 26 22  1  0
  1 29  1  0
  1 30  1  0
  6 31  1  0
  7 32  1  0
  8 33  1  0
 11 34  1  0
 11 35  1  0
 12 36  1  0
 12 37  1  0
 15 38  1  0
 15 39  1  0
 16 40  1  0
 16 41  1  0
 17 42  1  0
 18 43  1  0
 23 44  1  0
 24 45  1  0
 25 46  1  0
M  END
>  <Original_Name>  (5) 
CHEMBL354419

>  <ROSHAMBO_ComboTanimoto>  (5) 
1.321

>  <ROSHAMBO_ShapeTanimoto>  (5) 
0.821

>  <ROSHAMBO_ColorTanimoto>  (5) 
0.501

>  <ROSHAMBO_FitTverskyCombo>  (5) 
1.554

>  <ROSHAMBO_FitTversky>  (5) 
0.859

>  <ROSHAMBO_FitColorTversky>  (5) 
0.696

>  <ROSHAMBO_RefTverskyCombo>  (5) 
1.59

>  <ROSHAMBO_RefTversky>  (5) 
0.949

>  <ROSHAMBO_RefColorTversky>  (5) 
0.641

>  <ROSHAMBO_Overlap>  (5) 
1174.775

$$$$
CHEMBL274274_0_31
     RDKit          3D

 47 51  0  0  0  0  0  0  0  0999 V2000
    0.6436    2.7009    0.7359 N   0  0  0  0  0  0  0  0  0  0  0  0
    0.5538    1.3134    0.5012 C   0  0  0  0  0  0  0  0  0  0  0  0
   -0.5868    0.6413    0.3715 N   0  0  0  0  0  0  0  0  0  0  0  0
   -0.5610   -0.6822    0.1493 C   0  0  0  0  0  0  0  0  0  0  0  0
   -1.7692   -1.3449    0.0202 C   0  0  0  0  0  0  0  0  0  0  0  0
   -2.9657   -0.5896    0.1297 N   0  0  0  0  0  0  0  0  0  0  0  0
   -4.2760   -1.2090    0.0064 C   0  0  0  0  0  0  0  0  0  0  0  0
   -5.3661   -0.2361    0.1541 C   0  0  0  0  0  0  0  0  0  0  0  0
   -5.8967    0.0220    1.4120 C   0  0  0  0  0  0  0  0  0  0  0  0
   -6.9209    0.9335    1.5645 C   0  0  0  0  0  0  0  0  0  0  0  0
   -7.4437    1.6101    0.4790 C   0  0  0  0  0  0  0  0  0  0  0  0
   -6.9153    1.3521   -0.7681 C   0  0  0  0  0  0  0  0  0  0  0  0
   -5.8864    0.4352   -0.9148 C   0  0  0  0  0  0  0  0  0  0  0  0
   -1.7997   -2.6999   -0.2082 C   0  0  0  0  0  0  0  0  0  0  0  0
   -0.6044   -3.3817   -0.3054 C   0  0  0  0  0  0  0  0  0  0  0  0
    0.6090   -2.7556   -0.1823 C   0  0  0  0  0  0  0  0  0  0  0  0
    0.6349   -1.4019    0.0457 C   0  0  0  0  0  0  0  0  0  0  0  0
    1.7865   -0.7108    0.1788 N   0  0  0  0  0  0  0  0  0  0  0  0
    3.0725   -1.0764    0.1361 C   0  0  0  0  0  0  0  0  0  0  0  0
    3.5140   -2.2219   -0.0502 O   0  0  0  0  0  0  0  0  0  0  0  0
    3.8567   -0.0009    0.3284 N   0  0  0  0  0  0  0  0  0  0  0  0
    5.2772    0.0746    0.3618 C   0  0  0  0  0  0  0  0  0  0  0  0
    5.9856   -0.4763    1.4112 C   0  0  0  0  0  0  0  0  0  0  0  0
    7.3635   -0.4150    1.4645 C   0  0  0  0  0  0  0  0  0  0  0  0
    8.1000    0.1988    0.4734 C   0  0  0  0  0  0  0  0  0  0  0  0
    7.4000    0.7521   -0.5792 C   0  0  0  0  0  0  0  0  0  0  0  0
    6.0177    0.6887   -0.6293 C   0  0  0  0  0  0  0  0  0  0  0  0
    3.0321    1.0128    0.4869 N   0  0  0  0  0  0  0  0  0  0  0  0
    1.7502    0.6151    0.4013 C   0  0  0  0  0  0  0  0  0  0  0  0
    1.5665    3.1495    0.8249 H   0  0  0  0  0  0  0  0  0  0  0  0
   -0.2137    3.2659    0.8184 H   0  0  0  0  0  0  0  0  0  0  0  0
   -2.9046    0.4242    0.3011 H   0  0  0  0  0  0  0  0  0  0  0  0
   -4.3534   -1.6797   -0.9847 H   0  0  0  0  0  0  0  0  0  0  0  0
   -4.3753   -1.9518    0.8116 H   0  0  0  0  0  0  0  0  0  0  0  0
   -5.4976   -0.5038    2.2919 H   0  0  0  0  0  0  0  0  0  0  0  0
   -7.3286    1.1251    2.5681 H   0  0  0  0  0  0  0  0  0  0  0  0
   -8.2603    2.3359    0.6066 H   0  0  0  0  0  0  0  0  0  0  0  0
   -7.3120    1.8761   -1.6501 H   0  0  0  0  0  0  0  0  0  0  0  0
   -5.4785    0.2434   -1.9182 H   0  0  0  0  0  0  0  0  0  0  0  0
   -2.7580   -3.2301   -0.3113 H   0  0  0  0  0  0  0  0  0  0  0  0
   -0.6256   -4.4662   -0.4881 H   0  0  0  0  0  0  0  0  0  0  0  0
    1.5450   -3.3275   -0.2649 H   0  0  0  0  0  0  0  0  0  0  0  0
    5.4388   -0.9761    2.2243 H   0  0  0  0  0  0  0  0  0  0  0  0
    7.8874   -0.8674    2.3194 H   0  0  0  0  0  0  0  0  0  0  0  0
    9.1981    0.2454    0.5199 H   0  0  0  0  0  0  0  0  0  0  0  0
    7.9487    1.2514   -1.3913 H   0  0  0  0  0  0  0  0  0  0  0  0
    5.4935    1.1410   -1.4841 H   0  0  0  0  0  0  0  0  0  0  0  0
  1  2  1  0
  2  3  2  0
  3  4  1  0
  4  5  2  0
  5  6  1  0
  6  7  1  0
  7  8  1  0
  8  9  2  0
  9 10  1  0
 10 11  2  0
 11 12  1  0
 12 13  2  0
  5 14  1  0
 14 15  2  0
 15 16  1  0
 16 17  2  0
 17 18  1  0
 18 19  1  0
 19 20  2  0
 19 21  1  0
 21 22  1  0
 22 23  2  0
 23 24  1  0
 24 25  2  0
 25 26  1  0
 26 27  2  0
 21 28  1  0
 28 29  2  0
 29  2  1  0
 17  4  1  0
 29 18  1  0
 13  8  1  0
 27 22  1  0
  1 30  1  0
  1 31  1  0
  6 32  1  0
  7 33  1  0
  7 34  1  0
  9 35  1  0
 10 36  1  0
 11 37  1  0
 12 38  1  0
 13 39  1  0
 14 40  1  0
 15 41  1  0
 16 42  1  0
 23 43  1  0
 24 44  1  0
 25 45  1  0
 26 46  1  0
 27 47  1  0
M  END
>  <Original_Name>  (6) 
CHEMBL274274

>  <ROSHAMBO_ComboTanimoto>  (6) 
1.274

>  <ROSHAMBO_ShapeTanimoto>  (6) 
0.794

>  <ROSHAMBO_ColorTanimoto>  (6) 
0.48

>  <ROSHAMBO_FitTverskyCombo>  (6) 
1.519

>  <ROSHAMBO_FitTversky>  (6) 
0.828

>  <ROSHAMBO_FitColorTversky>  (6) 
0.691

>  <ROSHAMBO_RefTverskyCombo>  (6) 
1.562

>  <ROSHAMBO_RefTversky>  (6) 
0.951

>  <ROSHAMBO_RefColorTversky>  (6) 
0.611

>  <ROSHAMBO_Overlap>  (6) 
1179.819

$$$$
CHEMBL426821_0_8
     RDKit          3D

 38 40  0  0  0  0  0  0  0  0999 V2000
   -6.6551    1.1584   -0.3908 C   0  0  0  0  0  0  0  0  0  0  0  0
   -5.4330    0.2836   -0.7006 C   0  0  0  0  0  0  0  0  0  0  0  0
   -5.3418   -0.8644    0.2626 C   0  0  0  0  0  0  0  0  0  0  0  0
   -4.1568   -1.7377   -0.0193 C   0  0  0  0  0  0  0  0  0  0  0  0
   -2.9465   -0.9585    0.1006 N   0  0  0  0  0  0  0  0  0  0  0  0
   -1.6690   -1.5364   -0.1184 C   0  0  0  0  0  0  0  0  0  0  0  0
   -1.5870   -2.7421   -0.4209 O   0  0  0  0  0  0  0  0  0  0  0  0
   -0.4629   -0.7467    0.0044 C   0  0  0  0  0  0  0  0  0  0  0  0
    0.7874   -1.2831   -0.2028 C   0  0  0  0  0  0  0  0  0  0  0  0
    1.9256   -0.5760   -0.0964 N   0  0  0  0  0  0  0  0  0  0  0  0
    3.2067   -0.9345   -0.2614 N   0  0  0  0  0  0  0  0  0  0  0  0
    3.9807    0.1347   -0.0439 C   0  0  0  0  0  0  0  0  0  0  0  0
    5.4347    0.1144   -0.1358 C   0  0  0  0  0  0  0  0  0  0  0  0
    6.2721    1.0729   -0.6614 C   0  0  0  0  0  0  0  0  0  0  0  0
    7.5738    0.6141   -0.5291 C   0  0  0  0  0  0  0  0  0  0  0  0
    7.4490   -0.6162    0.0790 C   0  0  0  0  0  0  0  0  0  0  0  0
    6.1805   -0.8627    0.2879 O   0  0  0  0  0  0  0  0  0  0  0  0
    3.1489    1.1476    0.2558 N   0  0  0  0  0  0  0  0  0  0  0  0
    1.8724    0.7249    0.2279 C   0  0  0  0  0  0  0  0  0  0  0  0
    0.6302    1.2887    0.4413 C   0  0  0  0  0  0  0  0  0  0  0  0
    0.5774    2.6602    0.7829 N   0  0  0  0  0  0  0  0  0  0  0  0
   -0.5042    0.5692    0.3315 N   0  0  0  0  0  0  0  0  0  0  0  0
   -6.7768    1.2456    0.6989 H   0  0  0  0  0  0  0  0  0  0  0  0
   -6.5094    2.1587   -0.8247 H   0  0  0  0  0  0  0  0  0  0  0  0
   -7.5550    0.6981   -0.8247 H   0  0  0  0  0  0  0  0  0  0  0  0
   -5.5215   -0.1103   -1.7239 H   0  0  0  0  0  0  0  0  0  0  0  0
   -4.5258    0.8980   -0.6041 H   0  0  0  0  0  0  0  0  0  0  0  0
   -5.2546   -0.4655    1.2840 H   0  0  0  0  0  0  0  0  0  0  0  0
   -6.2497   -1.4755    0.1516 H   0  0  0  0  0  0  0  0  0  0  0  0
   -4.1322   -2.5671    0.7028 H   0  0  0  0  0  0  0  0  0  0  0  0
   -4.2333   -2.1425   -1.0393 H   0  0  0  0  0  0  0  0  0  0  0  0
   -3.0121    0.0386    0.3506 H   0  0  0  0  0  0  0  0  0  0  0  0
    0.8592   -2.3478   -0.4698 H   0  0  0  0  0  0  0  0  0  0  0  0
    5.9638    2.0305   -1.1063 H   0  0  0  0  0  0  0  0  0  0  0  0
    8.4999    1.1196   -0.8402 H   0  0  0  0  0  0  0  0  0  0  0  0
    8.2815   -1.2838    0.3459 H   0  0  0  0  0  0  0  0  0  0  0  0
   -0.3318    3.1147    0.9494 H   0  0  0  0  0  0  0  0  0  0  0  0
    1.4480    3.2044    0.8651 H   0  0  0  0  0  0  0  0  0  0  0  0
  1  2  1  0
  2  3  1  0
  3  4  1  0
  4  5  1  0
  5  6  1  0
  6  7  2  0
  6  8  1  0
  8  9  2  0
  9 10  1  0
 10 11  1  0
 11 12  2  0
 12 13  1  0
 13 14  2  0
 14 15  1  0
 15 16  2  0
 16 17  1  0
 12 18  1  0
 18 19  2  0
 19 20  1  0
 20 21  1  0
 20 22  2  0
 22  8  1  0
 19 10  1  0
 17 13  1  0
  1 23  1  0
  1 24  1  0
  1 25  1  0
  2 26  1  0
  2 27  1  0
  3 28  1  0
  3 29  1  0
  4 30  1  0
  4 31  1  0
  5 32  1  0
  9 33  1  0
 14 34  1  0
 15 35  1  0
 16 36  1  0
 21 37  1  0
 21 38  1  0
M  END
>  <Original_Name>  (7) 
CHEMBL426821

>  <ROSHAMBO_ComboTanimoto>  (7) 
1.273

>  <ROSHAMBO_ShapeTanimoto>  (7) 
0.821

>  <ROSHAMBO_ColorTanimoto>  (7) 
0.452

>  <ROSHAMBO_FitTverskyCombo>  (7) 
1.648

>  <ROSHAMBO_FitTversky>  (7) 
0.97

>  <ROSHAMBO_FitColorTversky>  (7) 
0.678

>  <ROSHAMBO_RefTverskyCombo>  (7) 
1.417

>  <ROSHAMBO_RefTversky>  (7) 
0.842

>  <ROSHAMBO_RefColorTversky>  (7) 
0.575

>  <ROSHAMBO_Overlap>  (7) 
1028.918

$$$$
CHEMBL196258_0_92
     RDKit          3D

 39 41  0  0  0  0  0  0  0  0999 V2000
   -5.4424   -0.2472    1.5453 C   0  0  0  0  0  0  0  0  0  0  0  0
   -5.4234   -0.7924    0.1538 C   0  0  0  0  0  0  0  0  0  0  0  0
   -4.1917   -1.6661   -0.1099 C   0  0  0  0  0  0  0  0  0  0  0  0
   -2.9250   -0.8747    0.0797 C   0  0  0  0  0  0  0  0  0  0  0  0
   -1.7304   -1.7345   -0.1795 C   0  0  0  0  0  0  0  0  0  0  0  0
   -0.4833   -0.9408    0.0112 C   0  0  0  0  0  0  0  0  0  0  0  0
   -0.5522    0.3551    0.3659 N   0  0  0  0  0  0  0  0  0  0  0  0
    0.5253    1.1371    0.5569 C   0  0  0  0  0  0  0  0  0  0  0  0
    0.4012    2.5037    0.9321 N   0  0  0  0  0  0  0  0  0  0  0  0
    1.7601    0.5476    0.3707 C   0  0  0  0  0  0  0  0  0  0  0  0
    3.0269    1.0090    0.4705 N   0  0  0  0  0  0  0  0  0  0  0  0
    3.8984    0.0003    0.1774 C   0  0  0  0  0  0  0  0  0  0  0  0
    5.3197    0.1716    0.1949 N   0  0  0  0  0  0  0  0  0  0  0  0
    6.2318   -0.7546    0.4913 N   0  0  0  0  0  0  0  0  0  0  0  0
    7.4621   -0.2651    0.4125 C   0  0  0  0  0  0  0  0  0  0  0  0
    7.3260    1.0575    0.0422 C   0  0  0  0  0  0  0  0  0  0  0  0
    6.0034    1.2704   -0.0765 N   0  0  0  0  0  0  0  0  0  0  0  0
    3.1869   -1.1049   -0.1092 N   0  0  0  0  0  0  0  0  0  0  0  0
    3.7462   -2.3979   -0.4733 C   0  0  0  0  0  0  0  0  0  0  0  0
    1.8848   -0.7872    0.0042 C   0  0  0  0  0  0  0  0  0  0  0  0
    0.7394   -1.4732   -0.1592 N   0  0  0  0  0  0  0  0  0  0  0  0
   -5.4134   -1.0784    2.2652 H   0  0  0  0  0  0  0  0  0  0  0  0
   -4.5663    0.4004    1.6974 H   0  0  0  0  0  0  0  0  0  0  0  0
   -6.3615    0.3377    1.6974 H   0  0  0  0  0  0  0  0  0  0  0  0
   -6.3277   -1.3993   -0.0011 H   0  0  0  0  0  0  0  0  0  0  0  0
   -5.3881    0.0591   -0.5417 H   0  0  0  0  0  0  0  0  0  0  0  0
   -4.1949   -2.5148    0.5899 H   0  0  0  0  0  0  0  0  0  0  0  0
   -4.2305   -2.0263   -1.1485 H   0  0  0  0  0  0  0  0  0  0  0  0
   -2.9196   -0.0261   -0.6202 H   0  0  0  0  0  0  0  0  0  0  0  0
   -2.8840   -0.5096    1.1165 H   0  0  0  0  0  0  0  0  0  0  0  0
   -1.7332   -2.5833    0.5203 H   0  0  0  0  0  0  0  0  0  0  0  0
   -1.7689   -2.1057   -1.2142 H   0  0  0  0  0  0  0  0  0  0  0  0
    1.2447    3.0782    1.0713 H   0  0  0  0  0  0  0  0  0  0  0  0
   -0.5322    2.9187    1.0645 H   0  0  0  0  0  0  0  0  0  0  0  0
    8.4015   -0.8045    0.6037 H   0  0  0  0  0  0  0  0  0  0  0  0
    8.1328    1.7870   -0.1219 H   0  0  0  0  0  0  0  0  0  0  0  0
    3.9902   -2.9619    0.4391 H   0  0  0  0  0  0  0  0  0  0  0  0
    3.0113   -2.9612   -1.0671 H   0  0  0  0  0  0  0  0  0  0  0  0
    4.6600   -2.2481   -1.0671 H   0  0  0  0  0  0  0  0  0  0  0  0
  1  2  1  0
  2  3  1  0
  3  4  1  0
  4  5  1  0
  5  6  1  0
  6  7  2  0
  7  8  1  0
  8  9  1  0
  8 10  2  0
 10 11  1  0
 11 12  2  0
 12 13  1  0
 13 14  1  0
 14 15  2  0
 15 16  1  0
 16 17  2  0
 12 18  1  0
 18 19  1  0
 18 20  1  0
 20 21  2  0
 21  6  1  0
 20 10  1  0
 17 13  1  0
  1 22  1  0
  1 23  1  0
  1 24  1  0
  2 25  1  0
  2 26  1  0
  3 27  1  0
  3 28  1  0
  4 29  1  0
  4 30  1  0
  5 31  1  0
  5 32  1  0
  9 33  1  0
  9 34  1  0
 15 35  1  0
 16 36  1  0
 19 37  1  0
 19 38  1  0
 19 39  1  0
M  END
>  <Original_Name>  (8) 
CHEMBL196258

>  <ROSHAMBO_ComboTanimoto>  (8) 
1.271

>  <ROSHAMBO_ShapeTanimoto>  (8) 
0.747

>  <ROSHAMBO_ColorTanimoto>  (8) 
0.523

>  <ROSHAMBO_FitTverskyCombo>  (8) 
1.688

>  <ROSHAMBO_FitTversky>  (8) 
0.943

>  <ROSHAMBO_FitColorTversky>  (8) 
0.745

>  <ROSHAMBO_RefTverskyCombo>  (8) 
1.42

>  <ROSHAMBO_RefTversky>  (8) 
0.782

>  <ROSHAMBO_RefColorTversky>  (8) 
0.638

>  <ROSHAMBO_Overlap>  (8) 
953.65

$$$$
CHEMBL179265_0_97
     RDKit          3D

 53 58  0  0  0  0  0  0  0  0999 V2000
    1.2714    2.7862   -0.3129 N   0  0  0  0  0  0  0  0  0  0  0  0
    1.2632    1.3891   -0.1235 C   0  0  0  0  0  0  0  0  0  0  0  0
    0.1512    0.6596   -0.0364 N   0  0  0  0  0  0  0  0  0  0  0  0
    0.1902   -0.6940    0.1477 C   0  0  0  0  0  0  0  0  0  0  0  0
   -1.0647   -1.4337    0.2347 C   0  0  0  0  0  0  0  0  0  0  0  0
   -1.1122   -2.7961    0.4190 C   0  0  0  0  0  0  0  0  0  0  0  0
   -2.3589   -3.4011    0.4878 C   0  0  0  0  0  0  0  0  0  0  0  0
   -3.5361   -2.6968    0.3796 C   0  0  0  0  0  0  0  0  0  0  0  0
   -3.5102   -1.3117    0.1920 C   0  0  0  0  0  0  0  0  0  0  0  0
   -4.7009   -0.5585    0.0846 N   0  0  0  0  0  0  0  0  0  0  0  0
   -5.9653   -1.1771    0.3637 C   0  0  0  0  0  0  0  0  0  0  0  0
   -7.0438   -0.2269    0.7935 C   0  0  0  0  0  0  0  0  0  0  0  0
   -7.0388    1.0953    0.1058 C   0  0  0  0  0  0  0  0  0  0  0  0
   -6.0090    1.0915   -0.9869 C   0  0  0  0  0  0  0  0  0  0  0  0
   -4.6534    0.8207   -0.3110 C   0  0  0  0  0  0  0  0  0  0  0  0
   -6.7372    2.1543    0.9800 O   0  0  0  0  0  0  0  0  0  0  0  0
   -7.9306    2.5546    1.5480 C   0  0  0  0  0  0  0  0  0  0  0  0
   -8.9654    2.1132    0.5661 C   0  0  0  0  0  0  0  0  0  0  0  0
   -8.2832    1.4198   -0.4300 O   0  0  0  0  0  0  0  0  0  0  0  0
   -2.2698   -0.7256    0.1258 C   0  0  0  0  0  0  0  0  0  0  0  0
    1.4018   -1.3077    0.2439 C   0  0  0  0  0  0  0  0  0  0  0  0
    2.5723   -0.5517    0.1538 C   0  0  0  0  0  0  0  0  0  0  0  0
    3.8750   -0.8774    0.2119 N   0  0  0  0  0  0  0  0  0  0  0  0
    4.6166    0.2454    0.0676 C   0  0  0  0  0  0  0  0  0  0  0  0
    6.0795    0.3375    0.0708 C   0  0  0  0  0  0  0  0  0  0  0  0
    6.9781   -0.6922    0.2506 C   0  0  0  0  0  0  0  0  0  0  0  0
    8.2514   -0.1426    0.1766 C   0  0  0  0  0  0  0  0  0  0  0  0
    8.0451    1.2084   -0.0472 C   0  0  0  0  0  0  0  0  0  0  0  0
    6.7435    1.4499   -0.1030 O   0  0  0  0  0  0  0  0  0  0  0  0
    3.7257    1.2414   -0.0771 N   0  0  0  0  0  0  0  0  0  0  0  0
    2.4811    0.7776   -0.0275 N   0  0  0  0  0  0  0  0  0  0  0  0
    2.1664    3.2926   -0.3721 H   0  0  0  0  0  0  0  0  0  0  0  0
    0.3825    3.3004   -0.3922 H   0  0  0  0  0  0  0  0  0  0  0  0
   -0.1894   -3.3881    0.5092 H   0  0  0  0  0  0  0  0  0  0  0  0
   -2.4083   -4.4901    0.6351 H   0  0  0  0  0  0  0  0  0  0  0  0
   -4.4993   -3.2246    0.4408 H   0  0  0  0  0  0  0  0  0  0  0  0
   -6.3044   -1.6914   -0.5476 H   0  0  0  0  0  0  0  0  0  0  0  0
   -5.7980   -1.8616    1.2083 H   0  0  0  0  0  0  0  0  0  0  0  0
   -8.0152   -0.7060    0.6018 H   0  0  0  0  0  0  0  0  0  0  0  0
   -6.8582   -0.0171    1.8573 H   0  0  0  0  0  0  0  0  0  0  0  0
   -6.2336    0.3007   -1.7177 H   0  0  0  0  0  0  0  0  0  0  0  0
   -5.9992    2.0499   -1.5266 H   0  0  0  0  0  0  0  0  0  0  0  0
   -3.8285    0.9913   -1.0183 H   0  0  0  0  0  0  0  0  0  0  0  0
   -4.4794    1.4890    0.5453 H   0  0  0  0  0  0  0  0  0  0  0  0
   -8.0828    2.0668    2.5221 H   0  0  0  0  0  0  0  0  0  0  0  0
   -7.9651    3.6371    1.7408 H   0  0  0  0  0  0  0  0  0  0  0  0
   -9.6990    1.4553    1.0549 H   0  0  0  0  0  0  0  0  0  0  0  0
   -9.5176    2.9699    0.1526 H   0  0  0  0  0  0  0  0  0  0  0  0
   -2.2189    0.3633   -0.0213 H   0  0  0  0  0  0  0  0  0  0  0  0
    1.4584   -2.3962    0.3921 H   0  0  0  0  0  0  0  0  0  0  0  0
    6.7327   -1.7508    0.4209 H   0  0  0  0  0  0  0  0  0  0  0  0
    9.2139   -0.6662    0.2744 H   0  0  0  0  0  0  0  0  0  0  0  0
    8.8376    1.9627   -0.1608 H   0  0  0  0  0  0  0  0  0  0  0  0
  1  2  1  0
  2  3  2  0
  3  4  1  0
  4  5  1  0
  5  6  2  0
  6  7  1  0
  7  8  2  0
  8  9  1  0
  9 10  1  0
 10 11  1  0
 11 12  1  0
 12 13  1  0
 13 14  1  0
 14 15  1  0
 13 16  1  0
 16 17  1  0
 17 18  1  0
 18 19  1  0
  9 20  2  0
  4 21  2  0
 21 22  1  0
 22 23  2  0
 23 24  1  0
 24 25  1  0
 25 26  2  0
 26 27  1  0
 27 28  2  0
 28 29  1  0
 24 30  2  0
 30 31  1  0
 31  2  1  0
 20  5  1  0
 31 22  1  0
 15 10  1  0
 29 25  1  0
 19 13  1  0
  1 32  1  0
  1 33  1  0
  6 34  1  0
  7 35  1  0
  8 36  1  0
 11 37  1  0
 11 38  1  0
 12 39  1  0
 12 40  1  0
 14 41  1  0
 14 42  1  0
 15 43  1  0
 15 44  1  0
 17 45  1  0
 17 46  1  0
 18 47  1  0
 18 48  1  0
 20 49  1  0
 21 50  1  0
 26 51  1  0
 27 52  1  0
 28 53  1  0
M  END
>  <Original_Name>  (9) 
CHEMBL179265

>  <ROSHAMBO_ComboTanimoto>  (9) 
1.229

>  <ROSHAMBO_ShapeTanimoto>  (9) 
0.779

>  <ROSHAMBO_ColorTanimoto>  (9) 
0.45

>  <ROSHAMBO_FitTverskyCombo>  (9) 
1.394

>  <ROSHAMBO_FitTversky>  (9) 
0.796

>  <ROSHAMBO_FitColorTversky>  (9) 
0.598

>  <ROSHAMBO_RefTverskyCombo>  (9) 
1.618

>  <ROSHAMBO_RefTversky>  (9) 
0.973

>  <ROSHAMBO_RefColorTversky>  (9) 
0.645

>  <ROSHAMBO_Overlap>  (9) 
1212.462

$$$$
CHEMBL183674_0_59
     RDKit          3D

 39 42  0  0  0  0  0  0  0  0999 V2000
    0.8061   -3.1834    0.0641 N   0  0  0  0  0  0  0  0  0  0  0  0
    0.5789   -1.7745    0.0349 C   0  0  0  0  0  0  0  0  0  0  0  0
   -0.6609   -1.2549    0.0310 N   0  0  0  0  0  0  0  0  0  0  0  0
   -0.8763    0.0723    0.0035 C   0  0  0  0  0  0  0  0  0  0  0  0
   -2.2046    0.6187   -0.0004 C   0  0  0  0  0  0  0  0  0  0  0  0
   -3.3228    1.0996   -0.0125 C   0  0  0  0  0  0  0  0  0  0  0  0
   -4.6743    1.6813   -0.0406 C   0  0  0  0  0  0  0  0  0  0  0  0
   -4.9185    2.4576    1.0876 O   0  0  0  0  0  0  0  0  0  0  0  0
   -5.6450    0.5234   -0.1269 C   0  0  0  0  0  0  0  0  0  0  0  0
   -6.9467    0.9662   -0.1982 O   0  0  0  0  0  0  0  0  0  0  0  0
   -5.2747   -0.5006   -1.1484 C   0  0  0  0  0  0  0  0  0  0  0  0
   -5.5875   -1.5770   -0.1305 C   0  0  0  0  0  0  0  0  0  0  0  0
   -5.3813   -0.5221    0.9497 C   0  0  0  0  0  0  0  0  0  0  0  0
    0.2603    0.8711   -0.0205 C   0  0  0  0  0  0  0  0  0  0  0  0
    1.4971    0.3656   -0.0169 N   0  0  0  0  0  0  0  0  0  0  0  0
    2.6935    0.9233   -0.0360 N   0  0  0  0  0  0  0  0  0  0  0  0
    3.6471   -0.0227   -0.0211 C   0  0  0  0  0  0  0  0  0  0  0  0
    5.0753    0.2410   -0.0352 C   0  0  0  0  0  0  0  0  0  0  0  0
    6.1055   -0.6307    0.3244 C   0  0  0  0  0  0  0  0  0  0  0  0
    7.2947    0.0417    0.1550 C   0  0  0  0  0  0  0  0  0  0  0  0
    6.9484    1.2929   -0.2994 C   0  0  0  0  0  0  0  0  0  0  0  0
    5.6569    1.3711   -0.3969 O   0  0  0  0  0  0  0  0  0  0  0  0
    3.0362   -1.2132    0.0083 N   0  0  0  0  0  0  0  0  0  0  0  0
    1.6921   -0.9610    0.0107 C   0  0  0  0  0  0  0  0  0  0  0  0
    1.7686   -3.5500    0.0664 H   0  0  0  0  0  0  0  0  0  0  0  0
    0.0074   -3.8336    0.0830 H   0  0  0  0  0  0  0  0  0  0  0  0
   -4.7876    2.3537   -0.9037 H   0  0  0  0  0  0  0  0  0  0  0  0
   -4.7493    1.9196    1.9013 H   0  0  0  0  0  0  0  0  0  0  0  0
   -7.3045    1.0879    0.7168 H   0  0  0  0  0  0  0  0  0  0  0  0
   -5.9241   -0.5123   -2.0362 H   0  0  0  0  0  0  0  0  0  0  0  0
   -4.3015   -0.4674   -1.6601 H   0  0  0  0  0  0  0  0  0  0  0  0
   -6.6092   -1.9803   -0.1887 H   0  0  0  0  0  0  0  0  0  0  0  0
   -5.0456   -2.5341   -0.1154 H   0  0  0  0  0  0  0  0  0  0  0  0
   -6.1232   -0.5438    1.7615 H   0  0  0  0  0  0  0  0  0  0  0  0
   -4.4757   -0.4983    1.5738 H   0  0  0  0  0  0  0  0  0  0  0  0
    0.1369    1.9640   -0.0435 H   0  0  0  0  0  0  0  0  0  0  0  0
    5.9881   -1.6656    0.6782 H   0  0  0  0  0  0  0  0  0  0  0  0
    8.3086   -0.3411    0.3434 H   0  0  0  0  0  0  0  0  0  0  0  0
    7.6551    2.1001   -0.5420 H   0  0  0  0  0  0  0  0  0  0  0  0
  1  2  1  0
  2  3  2  0
  3  4  1  0
  4  5  1  0
  5  6  3  0
  6  7  1  0
  7  8  1  0
  7  9  1  0
  9 10  1  0
  9 11  1  0
 11 12  1  0
 12 13  1  0
  4 14  2  0
 14 15  1  0
 15 16  1  0
 16 17  2  0
 17 18  1  0
 18 19  2  0
 19 20  1  0
 20 21  2  0
 21 22  1  0
 17 23  1  0
 23 24  2  0
 24  2  1  0
 13  9  1  0
 24 15  1  0
 22 18  1  0
  1 25  1  0
  1 26  1  0
  7 27  1  0
  8 28  1  0
 10 29  1  0
 11 30  1  0
 11 31  1  0
 12 32  1  0
 12 33  1  0
 13 34  1  0
 13 35  1  0
 14 36  1  0
 19 37  1  0
 20 38  1  0
 21 39  1  0
M  END
>  <Original_Name>  (10) 
CHEMBL183674

>  <ROSHAMBO_ComboTanimoto>  (10) 
1.229

>  <ROSHAMBO_ShapeTanimoto>  (10) 
0.731

>  <ROSHAMBO_ColorTanimoto>  (10) 
0.498

>  <ROSHAMBO_FitTverskyCombo>  (10) 
1.535

>  <ROSHAMBO_FitTversky>  (10) 
0.865

>  <ROSHAMBO_FitColorTversky>  (10) 
0.669

>  <ROSHAMBO_RefTverskyCombo>  (10) 
1.485

>  <ROSHAMBO_RefTversky>  (10) 
0.825

>  <ROSHAMBO_RefColorTversky>  (10) 
0.66

>  <ROSHAMBO_Overlap>  (10) 
1012.354

$$$$
CHEMBL248298_0_77
     RDKit          3D

 34 37  0  0  0  0  0  0  0  0999 V2000
   -3.1825   -0.0582   -1.2497 C   0  0  0  0  0  0  0  0  0  0  0  0
   -3.7435   -1.4031   -0.8118 C   0  0  0  0  0  0  0  0  0  0  0  0
   -3.0510   -1.7991    0.4939 C   0  0  0  0  0  0  0  0  0  0  0  0
   -1.6241   -1.9072    0.3038 N   0  0  0  0  0  0  0  0  0  0  0  0
   -0.9529   -3.0329   -0.0636 C   0  0  0  0  0  0  0  0  0  0  0  0
    0.3641   -2.7765   -0.1470 N   0  0  0  0  0  0  0  0  0  0  0  0
    0.5750   -1.4824    0.1636 C   0  0  0  0  0  0  0  0  0  0  0  0
   -0.6734   -0.9672    0.4388 C   0  0  0  0  0  0  0  0  0  0  0  0
   -0.7365    0.3372    0.7833 N   0  0  0  0  0  0  0  0  0  0  0  0
    0.3529    1.1147    0.8605 C   0  0  0  0  0  0  0  0  0  0  0  0
    0.1927    2.4734    1.2301 N   0  0  0  0  0  0  0  0  0  0  0  0
    1.5777    0.6359    0.5975 N   0  0  0  0  0  0  0  0  0  0  0  0
    2.8032    1.1454    0.5899 N   0  0  0  0  0  0  0  0  0  0  0  0
    3.7096    0.2129    0.2458 C   0  0  0  0  0  0  0  0  0  0  0  0
    5.1656    0.3744    0.1221 C   0  0  0  0  0  0  0  0  0  0  0  0
    6.0993   -0.6381    0.1703 C   0  0  0  0  0  0  0  0  0  0  0  0
    7.3618   -0.0730    0.0145 C   0  0  0  0  0  0  0  0  0  0  0  0
    7.0984    1.2946   -0.1228 C   0  0  0  0  0  0  0  0  0  0  0  0
    5.8069    1.4809   -0.0508 O   0  0  0  0  0  0  0  0  0  0  0  0
    3.0051   -0.9136    0.0345 N   0  0  0  0  0  0  0  0  0  0  0  0
    1.6972   -0.6772    0.2443 C   0  0  0  0  0  0  0  0  0  0  0  0
   -2.9324    0.5413   -0.3621 H   0  0  0  0  0  0  0  0  0  0  0  0
   -2.2758   -0.2176   -1.8519 H   0  0  0  0  0  0  0  0  0  0  0  0
   -3.9337    0.4739   -1.8519 H   0  0  0  0  0  0  0  0  0  0  0  0
   -4.8283   -1.3205   -0.6494 H   0  0  0  0  0  0  0  0  0  0  0  0
   -3.5644   -2.1634   -1.5863 H   0  0  0  0  0  0  0  0  0  0  0  0
   -3.2563   -1.0344    1.2575 H   0  0  0  0  0  0  0  0  0  0  0  0
   -3.4392   -2.7762    0.8171 H   0  0  0  0  0  0  0  0  0  0  0  0
   -1.4195   -4.0089   -0.2629 H   0  0  0  0  0  0  0  0  0  0  0  0
    1.0154    3.0897    1.2960 H   0  0  0  0  0  0  0  0  0  0  0  0
   -0.7464    2.8447    1.4329 H   0  0  0  0  0  0  0  0  0  0  0  0
    5.8840   -1.7080    0.3082 H   0  0  0  0  0  0  0  0  0  0  0  0
    8.3371   -0.5817    0.0021 H   0  0  0  0  0  0  0  0  0  0  0  0
    7.8530    2.0818   -0.2674 H   0  0  0  0  0  0  0  0  0  0  0  0
  1  2  1  0
  2  3  1  0
  3  4  1  0
  4  5  1  0
  5  6  2  0
  6  7  1  0
  7  8  2  0
  8  9  1  0
  9 10  2  0
 10 11  1  0
 10 12  1  0
 12 13  1  0
 13 14  2  0
 14 15  1  0
 15 16  2  0
 16 17  1  0
 17 18  2  0
 18 19  1  0
 14 20  1  0
 20 21  2  0
  8  4  1  0
 21 12  1  0
 21  7  1  0
 19 15  1  0
  1 22  1  0
  1 23  1  0
  1 24  1  0
  2 25  1  0
  2 26  1  0
  3 27  1  0
  3 28  1  0
  5 29  1  0
 11 30  1  0
 11 31  1  0
 16 32  1  0
 17 33  1  0
 18 34  1  0
M  END
>  <Original_Name>  (11) 
CHEMBL248298

>  <ROSHAMBO_ComboTanimoto>  (11) 
1.223

>  <ROSHAMBO_ShapeTanimoto>  (11) 
0.716

>  <ROSHAMBO_ColorTanimoto>  (11) 
0.506

>  <ROSHAMBO_FitTverskyCombo>  (11) 
1.582

>  <ROSHAMBO_FitTversky>  (11) 
0.9

>  <ROSHAMBO_FitColorTversky>  (11) 
0.682

>  <ROSHAMBO_RefTverskyCombo>  (11) 
1.442

>  <ROSHAMBO_RefTversky>  (11) 
0.779

>  <ROSHAMBO_RefColorTversky>  (11) 
0.663

>  <ROSHAMBO_Overlap>  (11) 
951.096

$$$$
CHEMBL183674_0_90
     RDKit          3D

 39 42  0  0  0  0  0  0  0  0999 V2000
    0.9688   -3.2529   -0.2756 N   0  0  0  0  0  0  0  0  0  0  0  0
    0.7186   -1.8793   -0.0148 C   0  0  0  0  0  0  0  0  0  0  0  0
   -0.5462   -1.4468    0.1261 N   0  0  0  0  0  0  0  0  0  0  0  0
   -0.8199   -0.1319    0.3402 C   0  0  0  0  0  0  0  0  0  0  0  0
   -2.1329    0.4176    0.4036 C   0  0  0  0  0  0  0  0  0  0  0  0
   -3.2866    0.8873    0.4425 C   0  0  0  0  0  0  0  0  0  0  0  0
   -4.6236    1.4333    0.4685 C   0  0  0  0  0  0  0  0  0  0  0  0
   -4.7377    2.6451   -0.1896 O   0  0  0  0  0  0  0  0  0  0  0  0
   -5.6555    0.4924   -0.1218 C   0  0  0  0  0  0  0  0  0  0  0  0
   -6.9352    0.9873    0.0636 O   0  0  0  0  0  0  0  0  0  0  0  0
   -5.3353    0.0987   -1.5553 C   0  0  0  0  0  0  0  0  0  0  0  0
   -5.5716   -1.3735   -1.1950 C   0  0  0  0  0  0  0  0  0  0  0  0
   -5.5585   -0.9472    0.2838 C   0  0  0  0  0  0  0  0  0  0  0  0
    0.2863    0.7100    0.4059 C   0  0  0  0  0  0  0  0  0  0  0  0
    1.5545    0.3243    0.2728 N   0  0  0  0  0  0  0  0  0  0  0  0
    2.7271    0.9135    0.2675 N   0  0  0  0  0  0  0  0  0  0  0  0
    3.7120    0.0340    0.0548 C   0  0  0  0  0  0  0  0  0  0  0  0
    5.1549    0.3468   -0.0500 C   0  0  0  0  0  0  0  0  0  0  0  0
    5.6859    1.6184   -0.1824 C   0  0  0  0  0  0  0  0  0  0  0  0
    7.0522    1.5230   -0.2543 C   0  0  0  0  0  0  0  0  0  0  0  0
    7.3222    0.1877   -0.1632 C   0  0  0  0  0  0  0  0  0  0  0  0
    6.1735   -0.4734   -0.0428 O   0  0  0  0  0  0  0  0  0  0  0  0
    3.1198   -1.1481   -0.0736 N   0  0  0  0  0  0  0  0  0  0  0  0
    1.7741   -1.0318    0.0517 C   0  0  0  0  0  0  0  0  0  0  0  0
    1.9365   -3.5885   -0.3843 H   0  0  0  0  0  0  0  0  0  0  0  0
    0.1825   -3.9134   -0.3560 H   0  0  0  0  0  0  0  0  0  0  0  0
   -4.8209    1.5823    1.5404 H   0  0  0  0  0  0  0  0  0  0  0  0
   -4.8065    3.3761    0.4745 H   0  0  0  0  0  0  0  0  0  0  0  0
   -7.1236    1.0602    1.0328 H   0  0  0  0  0  0  0  0  0  0  0  0
   -6.0392    0.4986   -2.3000 H   0  0  0  0  0  0  0  0  0  0  0  0
   -4.3924    0.4153   -2.0251 H   0  0  0  0  0  0  0  0  0  0  0  0
   -6.5305   -1.7828   -1.5454 H   0  0  0  0  0  0  0  0  0  0  0  0
   -4.9161   -2.1726   -1.5715 H   0  0  0  0  0  0  0  0  0  0  0  0
   -6.4217   -1.3089    0.8618 H   0  0  0  0  0  0  0  0  0  0  0  0
   -4.7493   -1.2818    0.9495 H   0  0  0  0  0  0  0  0  0  0  0  0
    0.0984    1.7795    0.5817 H   0  0  0  0  0  0  0  0  0  0  0  0
    5.1067    2.5527   -0.2232 H   0  0  0  0  0  0  0  0  0  0  0  0
    7.7749    2.3452   -0.3621 H   0  0  0  0  0  0  0  0  0  0  0  0
    8.3238   -0.2665   -0.1856 H   0  0  0  0  0  0  0  0  0  0  0  0
  1  2  1  0
  2  3  2  0
  3  4  1  0
  4  5  1  0
  5  6  3  0
  6  7  1  0
  7  8  1  0
  7  9  1  0
  9 10  1  0
  9 11  1  0
 11 12  1  0
 12 13  1  0
  4 14  2  0
 14 15  1  0
 15 16  1  0
 16 17  2  0
 17 18  1  0
 18 19  2  0
 19 20  1  0
 20 21  2  0
 21 22  1  0
 17 23  1  0
 23 24  2  0
 24  2  1  0
 13  9  1  0
 24 15  1  0
 22 18  1  0
  1 25  1  0
  1 26  1  0
  7 27  1  0
  8 28  1  0
 10 29  1  0
 11 30  1  0
 11 31  1  0
 12 32  1  0
 12 33  1  0
 13 34  1  0
 13 35  1  0
 14 36  1  0
 19 37  1  0
 20 38  1  0
 21 39  1  0
M  END
>  <Original_Name>  (12) 
CHEMBL183674

>  <ROSHAMBO_ComboTanimoto>  (12) 
1.213

>  <ROSHAMBO_ShapeTanimoto>  (12) 
0.75

>  <ROSHAMBO_ColorTanimoto>  (12) 
0.463

>  <ROSHAMBO_FitTverskyCombo>  (12) 
1.517

>  <ROSHAMBO_FitTversky>  (12) 
0.88

>  <ROSHAMBO_FitColorTversky>  (12) 
0.637

>  <ROSHAMBO_RefTverskyCombo>  (12) 
1.464

>  <ROSHAMBO_RefTversky>  (12) 
0.835

>  <ROSHAMBO_RefColorTversky>  (12) 
0.629

>  <ROSHAMBO_Overlap>  (12) 
1025.014

$$$$
CHEMBL409915_0_22
     RDKit          3D

 36 39  0  0  0  0  0  0  0  0999 V2000
    0.0674    3.0981   -0.0809 N   0  0  0  0  0  0  0  0  0  0  0  0
    0.7336    1.8514   -0.0346 C   0  0  0  0  0  0  0  0  0  0  0  0
    2.0842    1.7558   -0.0322 N   0  0  0  0  0  0  0  0  0  0  0  0
    2.7278    0.5769    0.0116 C   0  0  0  0  0  0  0  0  0  0  0  0
    4.1816    0.4807    0.0138 C   0  0  0  0  0  0  0  0  0  0  0  0
    4.9570   -0.6543    0.0556 C   0  0  0  0  0  0  0  0  0  0  0  0
    6.2957   -0.2439    0.0389 C   0  0  0  0  0  0  0  0  0  0  0  0
    6.2358    1.1297   -0.0126 C   0  0  0  0  0  0  0  0  0  0  0  0
    4.9843    1.5183   -0.0259 O   0  0  0  0  0  0  0  0  0  0  0  0
    1.9561   -0.5650    0.0553 C   0  0  0  0  0  0  0  0  0  0  0  0
    2.2697   -1.8624    0.1039 N   0  0  0  0  0  0  0  0  0  0  0  0
    1.1278   -2.5694    0.1316 C   0  0  0  0  0  0  0  0  0  0  0  0
    0.0562   -1.7585    0.1020 N   0  0  0  0  0  0  0  0  0  0  0  0
   -1.3112   -2.1471    0.1179 C   0  0  0  0  0  0  0  0  0  0  0  0
   -1.5852   -3.3703    0.1643 O   0  0  0  0  0  0  0  0  0  0  0  0
   -2.3962   -1.2362    0.0846 N   0  0  0  0  0  0  0  0  0  0  0  0
   -3.7811   -1.6595    0.1018 C   0  0  0  0  0  0  0  0  0  0  0  0
   -4.6680   -0.4975    0.0587 C   0  0  0  0  0  0  0  0  0  0  0  0
   -5.1782    0.1230   -1.0638 C   0  0  0  0  0  0  0  0  0  0  0  0
   -5.9765    1.1750   -0.9165 C   0  0  0  0  0  0  0  0  0  0  0  0
   -6.2858    1.6352    0.3675 C   0  0  0  0  0  0  0  0  0  0  0  0
   -5.3295    0.4250    1.3620 S   0  0  0  0  0  0  0  0  0  0  0  0
    0.5637   -0.5016    0.0542 C   0  0  0  0  0  0  0  0  0  0  0  0
    0.0070    0.7131    0.0090 N   0  0  0  0  0  0  0  0  0  0  0  0
   -0.9620    3.1321   -0.0812 H   0  0  0  0  0  0  0  0  0  0  0  0
    0.6116    3.9719   -0.1143 H   0  0  0  0  0  0  0  0  0  0  0  0
    4.5933   -1.6917    0.0949 H   0  0  0  0  0  0  0  0  0  0  0  0
    7.1943   -0.8779    0.0619 H   0  0  0  0  0  0  0  0  0  0  0  0
    7.1072    1.8007   -0.0386 H   0  0  0  0  0  0  0  0  0  0  0  0
    1.0764   -3.6674    0.1730 H   0  0  0  0  0  0  0  0  0  0  0  0
   -2.1907   -0.2277    0.0464 H   0  0  0  0  0  0  0  0  0  0  0  0
   -3.9763   -2.2975   -0.7728 H   0  0  0  0  0  0  0  0  0  0  0  0
   -3.9719   -2.2210    1.0282 H   0  0  0  0  0  0  0  0  0  0  0  0
   -4.9270   -0.2490   -2.0681 H   0  0  0  0  0  0  0  0  0  0  0  0
   -6.3920    1.6816   -1.8001 H   0  0  0  0  0  0  0  0  0  0  0  0
   -6.9176    2.4767    0.6878 H   0  0  0  0  0  0  0  0  0  0  0  0
  1  2  1  0
  2  3  2  0
  3  4  1  0
  4  5  1  0
  5  6  2  0
  6  7  1  0
  7  8  2  0
  8  9  1  0
  4 10  2  0
 10 11  1  0
 11 12  2  0
 12 13  1  0
 13 14  1  0
 14 15  2  0
 14 16  1  0
 16 17  1  0
 17 18  1  0
 18 19  2  0
 19 20  1  0
 20 21  2  0
 21 22  1  0
 13 23  1  0
 23 24  2  0
 24  2  1  0
  9  5  1  0
 23 10  1  0
 22 18  1  0
  1 25  1  0
  1 26  1  0
  6 27  1  0
  7 28  1  0
  8 29  1  0
 12 30  1  0
 16 31  1  0
 17 32  1  0
 17 33  1  0
 19 34  1  0
 20 35  1  0
 21 36  1  0
M  END
>  <Original_Name>  (13) 
CHEMBL409915

>  <ROSHAMBO_ComboTanimoto>  (13) 
1.2

>  <ROSHAMBO_ShapeTanimoto>  (13) 
0.782

>  <ROSHAMBO_ColorTanimoto>  (13) 
0.418

>  <ROSHAMBO_FitTverskyCombo>  (13) 
1.513

>  <ROSHAMBO_FitTversky>  (13) 
0.904

>  <ROSHAMBO_FitColorTversky>  (13) 
0.61

>  <ROSHAMBO_RefTverskyCombo>  (13) 
1.424

>  <ROSHAMBO_RefTversky>  (13) 
0.854

>  <ROSHAMBO_RefColorTversky>  (13) 
0.571

>  <ROSHAMBO_Overlap>  (13) 
1047.08

$$$$
CHEMBL259832_0_0
     RDKit          3D

 36 39  0  0  0  0  0  0  0  0999 V2000
    0.0536    3.1860    0.0855 N   0  0  0  0  0  0  0  0  0  0  0  0
    0.7162    1.9176    0.0879 C   0  0  0  0  0  0  0  0  0  0  0  0
    2.0550    1.8415    0.1411 N   0  0  0  0  0  0  0  0  0  0  0  0
    2.6840    0.6306    0.1432 C   0  0  0  0  0  0  0  0  0  0  0  0
    4.1396    0.5536    0.2012 C   0  0  0  0  0  0  0  0  0  0  0  0
    4.8544   -0.6196    0.2075 C   0  0  0  0  0  0  0  0  0  0  0  0
    6.2093   -0.2821    0.2695 C   0  0  0  0  0  0  0  0  0  0  0  0
    6.2346    1.0922    0.2973 C   0  0  0  0  0  0  0  0  0  0  0  0
    5.0137    1.5073    0.2555 O   0  0  0  0  0  0  0  0  0  0  0  0
    1.8744   -0.4779    0.0886 C   0  0  0  0  0  0  0  0  0  0  0  0
    2.1534   -1.7859    0.0745 N   0  0  0  0  0  0  0  0  0  0  0  0
    1.0017   -2.4716    0.0141 C   0  0  0  0  0  0  0  0  0  0  0  0
   -0.0446   -1.6309   -0.0123 N   0  0  0  0  0  0  0  0  0  0  0  0
   -1.4133   -2.0089   -0.0756 C   0  0  0  0  0  0  0  0  0  0  0  0
   -1.7178   -3.2484   -0.1122 O   0  0  0  0  0  0  0  0  0  0  0  0
   -2.4601   -1.0485   -0.0997 N   0  0  0  0  0  0  0  0  0  0  0  0
   -3.8322   -1.5402   -0.1654 C   0  0  0  0  0  0  0  0  0  0  0  0
   -4.8069   -0.4258   -0.1836 C   0  0  0  0  0  0  0  0  0  0  0  0
   -5.3740    0.1476    0.9382 C   0  0  0  0  0  0  0  0  0  0  0  0
   -6.2325    1.1563    0.5106 C   0  0  0  0  0  0  0  0  0  0  0  0
   -6.1274    1.1282   -0.8792 C   0  0  0  0  0  0  0  0  0  0  0  0
   -5.2857    0.1891   -1.2125 O   0  0  0  0  0  0  0  0  0  0  0  0
    0.4815   -0.4010    0.0331 C   0  0  0  0  0  0  0  0  0  0  0  0
   -0.0651    0.8199    0.0346 N   0  0  0  0  0  0  0  0  0  0  0  0
   -0.9746    3.2299    0.0444 H   0  0  0  0  0  0  0  0  0  0  0  0
    0.6050    4.0551    0.1250 H   0  0  0  0  0  0  0  0  0  0  0  0
    4.4374   -1.6368    0.1707 H   0  0  0  0  0  0  0  0  0  0  0  0
    7.0692   -0.9676    0.2912 H   0  0  0  0  0  0  0  0  0  0  0  0
    7.1337    1.7240    0.3463 H   0  0  0  0  0  0  0  0  0  0  0  0
    0.9254   -3.5687   -0.0104 H   0  0  0  0  0  0  0  0  0  0  0  0
   -2.2571   -0.0391   -0.0718 H   0  0  0  0  0  0  0  0  0  0  0  0
   -3.9546   -2.1373   -1.0811 H   0  0  0  0  0  0  0  0  0  0  0  0
   -4.0232   -2.1516    0.7289 H   0  0  0  0  0  0  0  0  0  0  0  0
   -5.1816   -0.1412    1.9820 H   0  0  0  0  0  0  0  0  0  0  0  0
   -6.8522    1.8231    1.1281 H   0  0  0  0  0  0  0  0  0  0  0  0
   -6.6640    1.7873   -1.5775 H   0  0  0  0  0  0  0  0  0  0  0  0
  1  2  1  0
  2  3  2  0
  3  4  1  0
  4  5  1  0
  5  6  2  0
  6  7  1  0
  7  8  2  0
  8  9  1  0
  4 10  2  0
 10 11  1  0
 11 12  2  0
 12 13  1  0
 13 14  1  0
 14 15  2  0
 14 16  1  0
 16 17  1  0
 17 18  1  0
 18 19  2  0
 19 20  1  0
 20 21  2  0
 21 22  1  0
 13 23  1  0
 23 24  2  0
 24  2  1  0
  9  5  1  0
 23 10  1  0
 22 18  1  0
  1 25  1  0
  1 26  1  0
  6 27  1  0
  7 28  1  0
  8 29  1  0
 12 30  1  0
 16 31  1  0
 17 32  1  0
 17 33  1  0
 19 34  1  0
 20 35  1  0
 21 36  1  0
M  END
>  <Original_Name>  (14) 
CHEMBL259832

>  <ROSHAMBO_ComboTanimoto>  (14) 
1.184

>  <ROSHAMBO_ShapeTanimoto>  (14) 
0.786

>  <ROSHAMBO_ColorTanimoto>  (14) 
0.398

>  <ROSHAMBO_FitTverskyCombo>  (14) 
1.468

>  <ROSHAMBO_FitTversky>  (14) 
0.895

>  <ROSHAMBO_FitColorTversky>  (14) 
0.573

>  <ROSHAMBO_RefTverskyCombo>  (14) 
1.431

>  <ROSHAMBO_RefTversky>  (14) 
0.866

>  <ROSHAMBO_RefColorTversky>  (14) 
0.565

>  <ROSHAMBO_Overlap>  (14) 
1063.833

$$$$
CHEMBL113542_0_72
     RDKit          3D

 43 46  0  0  0  0  0  0  0  0999 V2000
   -7.2977    1.7756    0.4132 C   0  0  0  0  0  0  0  0  0  0  0  0
   -6.0932    0.8569    0.5084 C   0  0  0  0  0  0  0  0  0  0  0  0
   -6.5906   -0.5446    0.1857 C   0  0  0  0  0  0  0  0  0  0  0  0
   -5.7766   -1.1183   -0.9681 C   0  0  0  0  0  0  0  0  0  0  0  0
   -4.2863   -1.0576   -0.5821 C   0  0  0  0  0  0  0  0  0  0  0  0
   -3.9080    0.3074   -0.3555 N   0  0  0  0  0  0  0  0  0  0  0  0
   -2.6135    0.7756   -0.0950 C   0  0  0  0  0  0  0  0  0  0  0  0
   -2.5604    2.0679    0.0921 O   0  0  0  0  0  0  0  0  0  0  0  0
   -1.3668    0.0598   -0.0092 C   0  0  0  0  0  0  0  0  0  0  0  0
   -0.1702    0.8111   -0.0227 C   0  0  0  0  0  0  0  0  0  0  0  0
    1.0373    0.2437    0.0415 N   0  0  0  0  0  0  0  0  0  0  0  0
    2.2467    0.7834    0.0424 N   0  0  0  0  0  0  0  0  0  0  0  0
    3.1792   -0.1812    0.1230 C   0  0  0  0  0  0  0  0  0  0  0  0
    4.6232   -0.0242    0.1476 C   0  0  0  0  0  0  0  0  0  0  0  0
    5.5387   -0.9544    0.5794 C   0  0  0  0  0  0  0  0  0  0  0  0
    6.8058   -0.3810    0.4223 C   0  0  0  0  0  0  0  0  0  0  0  0
    6.5748    0.8739   -0.0992 C   0  0  0  0  0  0  0  0  0  0  0  0
    7.8745    2.1846   -0.5519 Br  0  0  0  0  0  0  0  0  0  0  0  0
    5.2783    1.0353   -0.2424 O   0  0  0  0  0  0  0  0  0  0  0  0
    2.4738   -1.3400    0.1715 N   0  0  0  0  0  0  0  0  0  0  0  0
    1.1530   -1.0988    0.1230 C   0  0  0  0  0  0  0  0  0  0  0  0
    0.0271   -1.8998    0.1413 C   0  0  0  0  0  0  0  0  0  0  0  0
    0.1489   -3.3001    0.2121 N   0  0  0  0  0  0  0  0  0  0  0  0
   -1.2400   -1.2917    0.0738 C   0  0  0  0  0  0  0  0  0  0  0  0
   -5.0132    1.2805   -0.4424 C   0  0  0  0  0  0  0  0  0  0  0  0
   -7.6404    2.0370    1.4252 H   0  0  0  0  0  0  0  0  0  0  0  0
   -7.0181    2.6919   -0.1273 H   0  0  0  0  0  0  0  0  0  0  0  0
   -8.1075    1.2637   -0.1273 H   0  0  0  0  0  0  0  0  0  0  0  0
   -5.6499    0.8937    1.5145 H   0  0  0  0  0  0  0  0  0  0  0  0
   -6.4758   -1.1875    1.0709 H   0  0  0  0  0  0  0  0  0  0  0  0
   -7.6519   -0.5008   -0.0998 H   0  0  0  0  0  0  0  0  0  0  0  0
   -6.0722   -2.1622   -1.1496 H   0  0  0  0  0  0  0  0  0  0  0  0
   -5.9557   -0.5379   -1.8852 H   0  0  0  0  0  0  0  0  0  0  0  0
   -4.1207   -1.6415    0.3353 H   0  0  0  0  0  0  0  0  0  0  0  0
   -3.6782   -1.4770   -1.3972 H   0  0  0  0  0  0  0  0  0  0  0  0
   -0.2356    1.9072   -0.0886 H   0  0  0  0  0  0  0  0  0  0  0  0
    5.3177   -1.9575    0.9730 H   0  0  0  0  0  0  0  0  0  0  0  0
    7.7783   -0.8349    0.6635 H   0  0  0  0  0  0  0  0  0  0  0  0
   -0.6950   -3.8904    0.2253 H   0  0  0  0  0  0  0  0  0  0  0  0
    1.0820   -3.7345    0.2507 H   0  0  0  0  0  0  0  0  0  0  0  0
   -2.1429   -1.9199    0.0885 H   0  0  0  0  0  0  0  0  0  0  0  0
   -4.6489    2.2817   -0.1686 H   0  0  0  0  0  0  0  0  0  0  0  0
   -5.4061    1.3153   -1.4692 H   0  0  0  0  0  0  0  0  0  0  0  0
  1  2  1  0
  2  3  1  0
  3  4  1  0
  4  5  1  0
  5  6  1  0
  6  7  1  0
  7  8  2  0
  7  9  1  0
  9 10  2  0
 10 11  1  0
 11 12  1  0
 12 13  2  0
 13 14  1  0
 14 15  2  0
 15 16  1  0
 16 17  2  0
 17 18  1  0
 17 19  1  0
 13 20  1  0
 20 21  2  0
 21 22  1  0
 22 23  1  0
 22 24  2  0
  6 25  1  0
 25  2  1  0
 24  9  1  0
 21 11  1  0
 19 14  1  0
  1 26  1  0
  1 27  1  0
  1 28  1  0
  2 29  1  0
  3 30  1  0
  3 31  1  0
  4 32  1  0
  4 33  1  0
  5 34  1  0
  5 35  1  0
 10 36  1  0
 15 37  1  0
 16 38  1  0
 23 39  1  0
 23 40  1  0
 24 41  1  0
 25 42  1  0
 25 43  1  0
M  END
>  <Original_Name>  (15) 
CHEMBL113542

>  <ROSHAMBO_ComboTanimoto>  (15) 
1.168

>  <ROSHAMBO_ShapeTanimoto>  (15) 
0.75

>  <ROSHAMBO_ColorTanimoto>  (15) 
0.418

>  <ROSHAMBO_FitTverskyCombo>  (15) 
1.52

>  <ROSHAMBO_FitTversky>  (15) 
0.87

>  <ROSHAMBO_FitColorTversky>  (15) 
0.651

>  <ROSHAMBO_RefTverskyCombo>  (15) 
1.384

>  <ROSHAMBO_RefTversky>  (15) 
0.845

>  <ROSHAMBO_RefColorTversky>  (15) 
0.539

>  <ROSHAMBO_Overlap>  (15) 
1038.102

$$$$
CHEMBL113967_0_98
     RDKit          3D

 43 46  0  0  0  0  0  0  0  0999 V2000
   -2.9515    0.6008   -1.9887 C   0  0  0  0  0  0  0  0  0  0  0  0
   -4.1829    0.2325   -1.2648 C   0  0  0  0  0  0  0  0  0  0  0  0
   -4.9630    1.4484   -0.7096 C   0  0  0  0  0  0  0  0  0  0  0  0
   -6.3607    0.9315   -0.4396 C   0  0  0  0  0  0  0  0  0  0  0  0
   -6.4093   -0.2323    0.4833 C   0  0  0  0  0  0  0  0  0  0  0  0
   -5.3764   -1.3081    0.1957 C   0  0  0  0  0  0  0  0  0  0  0  0
   -4.0957   -0.6535   -0.1561 N   0  0  0  0  0  0  0  0  0  0  0  0
   -2.9741   -0.9344    0.5999 C   0  0  0  0  0  0  0  0  0  0  0  0
   -3.1334   -1.7937    1.5726 O   0  0  0  0  0  0  0  0  0  0  0  0
   -1.6354   -0.4084    0.4746 C   0  0  0  0  0  0  0  0  0  0  0  0
   -0.5861   -1.2461    0.1967 C   0  0  0  0  0  0  0  0  0  0  0  0
    0.7154   -0.7367    0.1067 C   0  0  0  0  0  0  0  0  0  0  0  0
    1.9317   -1.2561   -0.1316 N   0  0  0  0  0  0  0  0  0  0  0  0
    2.8645   -0.3015   -0.0940 C   0  0  0  0  0  0  0  0  0  0  0  0
    4.3158   -0.3646   -0.2754 C   0  0  0  0  0  0  0  0  0  0  0  0
    5.0441   -1.1859   -1.1005 C   0  0  0  0  0  0  0  0  0  0  0  0
    6.3843   -0.8876   -0.9356 C   0  0  0  0  0  0  0  0  0  0  0  0
    6.4144    0.1237    0.0025 C   0  0  0  0  0  0  0  0  0  0  0  0
    8.0085    0.9464    0.6345 Br  0  0  0  0  0  0  0  0  0  0  0  0
    5.1837    0.4023    0.3649 O   0  0  0  0  0  0  0  0  0  0  0  0
    2.2137    0.8471    0.1746 N   0  0  0  0  0  0  0  0  0  0  0  0
    0.9178    0.5810    0.2952 N   0  0  0  0  0  0  0  0  0  0  0  0
   -0.0877    1.4415    0.5703 C   0  0  0  0  0  0  0  0  0  0  0  0
    0.1534    2.8299    0.7642 N   0  0  0  0  0  0  0  0  0  0  0  0
   -1.3908    0.9237    0.6602 C   0  0  0  0  0  0  0  0  0  0  0  0
   -2.1578    0.8381   -1.2651 H   0  0  0  0  0  0  0  0  0  0  0  0
   -2.6319   -0.2411   -2.6205 H   0  0  0  0  0  0  0  0  0  0  0  0
   -3.1465    1.4799   -2.6205 H   0  0  0  0  0  0  0  0  0  0  0  0
   -4.6832   -0.2934   -2.0912 H   0  0  0  0  0  0  0  0  0  0  0  0
   -4.5000    1.8127    0.2193 H   0  0  0  0  0  0  0  0  0  0  0  0
   -4.9652    2.2930   -1.4144 H   0  0  0  0  0  0  0  0  0  0  0  0
   -6.9516    1.7475    0.0021 H   0  0  0  0  0  0  0  0  0  0  0  0
   -6.7641    0.5888   -1.4039 H   0  0  0  0  0  0  0  0  0  0  0  0
   -6.2472    0.1345    1.5075 H   0  0  0  0  0  0  0  0  0  0  0  0
   -7.3951   -0.7003    0.3448 H   0  0  0  0  0  0  0  0  0  0  0  0
   -5.2382   -1.9366    1.0878 H   0  0  0  0  0  0  0  0  0  0  0  0
   -5.7158   -1.9407   -0.6377 H   0  0  0  0  0  0  0  0  0  0  0  0
   -0.7669   -2.3203    0.0440 H   0  0  0  0  0  0  0  0  0  0  0  0
    4.6322   -1.9498   -1.7764 H   0  0  0  0  0  0  0  0  0  0  0  0
    7.2411   -1.3553   -1.4426 H   0  0  0  0  0  0  0  0  0  0  0  0
   -0.6306    3.4645    0.9727 H   0  0  0  0  0  0  0  0  0  0  0  0
    1.1119    3.2006    0.6961 H   0  0  0  0  0  0  0  0  0  0  0  0
   -2.2279    1.6014    0.8838 H   0  0  0  0  0  0  0  0  0  0  0  0
  1  2  1  0
  2  3  1  0
  3  4  1  0
  4  5  1  0
  5  6  1  0
  6  7  1  0
  7  8  1  0
  8  9  2  0
  8 10  1  0
 10 11  2  0
 11 12  1  0
 12 13  2  0
 13 14  1  0
 14 15  1  0
 15 16  2  0
 16 17  1  0
 17 18  2  0
 18 19  1  0
 18 20  1  0
 14 21  2  0
 21 22  1  0
 22 23  1  0
 23 24  1  0
 23 25  2  0
  7  2  1  0
 25 10  1  0
 22 12  1  0
 20 15  1  0
  1 26  1  0
  1 27  1  0
  1 28  1  0
  2 29  1  0
  3 30  1  0
  3 31  1  0
  4 32  1  0
  4 33  1  0
  5 34  1  0
  5 35  1  0
  6 36  1  0
  6 37  1  0
 11 38  1  0
 16 39  1  0
 17 40  1  0
 24 41  1  0
 24 42  1  0
 25 43  1  0
M  END
>  <Original_Name>  (16) 
CHEMBL113967

>  <ROSHAMBO_ComboTanimoto>  (16) 
1.159

>  <ROSHAMBO_ShapeTanimoto>  (16) 
0.749

>  <ROSHAMBO_ColorTanimoto>  (16) 
0.409

>  <ROSHAMBO_FitTverskyCombo>  (16) 
1.509

>  <ROSHAMBO_FitTversky>  (16) 
0.868

>  <ROSHAMBO_FitColorTversky>  (16) 
0.641

>  <ROSHAMBO_RefTverskyCombo>  (16) 
1.377

>  <ROSHAMBO_RefTversky>  (16) 
0.846

>  <ROSHAMBO_RefColorTversky>  (16) 
0.531

>  <ROSHAMBO_Overlap>  (16) 
1039.021

$$$$
CHEMBL110047_0_61
     RDKit          3D

 44 47  0  0  0  0  0  0  0  0999 V2000
   -6.9975    1.8561    0.8908 C   0  0  0  0  0  0  0  0  0  0  0  0
   -6.9592    0.5551    0.4595 O   0  0  0  0  0  0  0  0  0  0  0  0
   -5.6956    0.0201    0.4497 C   0  0  0  0  0  0  0  0  0  0  0  0
   -4.7377    0.7610   -0.4327 C   0  0  2  0  0  0  0  0  0  0  0  0
   -5.1312    0.4807   -1.8935 C   0  0  0  0  0  0  0  0  0  0  0  0
   -4.5424   -0.8962   -2.1603 C   0  0  0  0  0  0  0  0  0  0  0  0
   -3.5047   -1.0934   -1.0883 C   0  0  0  0  0  0  0  0  0  0  0  0
   -3.4313    0.1598   -0.4115 N   0  0  0  0  0  0  0  0  0  0  0  0
   -2.2904    0.7121    0.1825 C   0  0  0  0  0  0  0  0  0  0  0  0
   -2.4520    1.8757    0.7409 O   0  0  0  0  0  0  0  0  0  0  0  0
   -0.9709    0.1244    0.2381 C   0  0  0  0  0  0  0  0  0  0  0  0
    0.1337    0.9045   -0.0064 C   0  0  0  0  0  0  0  0  0  0  0  0
    1.3814    0.3806    0.0589 N   0  0  0  0  0  0  0  0  0  0  0  0
    2.5832    0.8800   -0.1146 N   0  0  0  0  0  0  0  0  0  0  0  0
    3.5290   -0.0383    0.0670 C   0  0  0  0  0  0  0  0  0  0  0  0
    2.8925   -1.1736    0.3699 N   0  0  0  0  0  0  0  0  0  0  0  0
    1.5536   -0.9200    0.3668 C   0  0  0  0  0  0  0  0  0  0  0  0
    0.4826   -1.7635    0.6245 C   0  0  0  0  0  0  0  0  0  0  0  0
    0.6479   -3.1257    0.9540 N   0  0  0  0  0  0  0  0  0  0  0  0
   -0.7943   -1.1897    0.5487 C   0  0  0  0  0  0  0  0  0  0  0  0
    4.9598    0.2530   -0.0535 C   0  0  0  0  0  0  0  0  0  0  0  0
    5.9606   -0.5441   -0.5541 C   0  0  0  0  0  0  0  0  0  0  0  0
    7.1434    0.1546   -0.4668 C   0  0  0  0  0  0  0  0  0  0  0  0
    6.8240    1.3656    0.0891 C   0  0  0  0  0  0  0  0  0  0  0  0
    8.0952    2.7624    0.4495 Br  0  0  0  0  0  0  0  0  0  0  0  0
    5.5501    1.3785    0.3122 O   0  0  0  0  0  0  0  0  0  0  0  0
   -6.9982    1.8780    1.9905 H   0  0  0  0  0  0  0  0  0  0  0  0
   -6.1148    2.3935    0.5138 H   0  0  0  0  0  0  0  0  0  0  0  0
   -7.9103    2.3406    0.5138 H   0  0  0  0  0  0  0  0  0  0  0  0
   -5.3039    0.0342    1.4775 H   0  0  0  0  0  0  0  0  0  0  0  0
   -5.7805   -1.0006    0.0485 H   0  0  0  0  0  0  0  0  0  0  0  0
   -4.7504    1.8098   -0.1013 H   0  0  0  0  0  0  0  0  0  0  0  0
   -6.2248    0.4706   -2.0114 H   0  0  0  0  0  0  0  0  0  0  0  0
   -4.7634    1.2472   -2.5915 H   0  0  0  0  0  0  0  0  0  0  0  0
   -5.3216   -1.6695   -2.0904 H   0  0  0  0  0  0  0  0  0  0  0  0
   -4.1117   -0.9717   -3.1696 H   0  0  0  0  0  0  0  0  0  0  0  0
   -3.8117   -1.8901   -0.3947 H   0  0  0  0  0  0  0  0  0  0  0  0
   -2.5326   -1.3961   -1.5046 H   0  0  0  0  0  0  0  0  0  0  0  0
    0.0032    1.9673   -0.2583 H   0  0  0  0  0  0  0  0  0  0  0  0
   -0.1768   -3.7149    1.1375 H   0  0  0  0  0  0  0  0  0  0  0  0
    1.5932   -3.5307    1.0110 H   0  0  0  0  0  0  0  0  0  0  0  0
   -1.6762   -1.8172    0.7452 H   0  0  0  0  0  0  0  0  0  0  0  0
    5.8383   -1.5614   -0.9542 H   0  0  0  0  0  0  0  0  0  0  0  0
    8.1406   -0.1887   -0.7794 H   0  0  0  0  0  0  0  0  0  0  0  0
  1  2  1  0
  2  3  1  0
  3  4  1  0
  4  5  1  0
  5  6  1  0
  6  7  1  0
  7  8  1  0
  8  9  1  0
  9 10  2  0
  9 11  1  0
 11 12  2  0
 12 13  1  0
 13 14  1  0
 14 15  2  0
 15 16  1  0
 16 17  2  0
 17 18  1  0
 18 19  1  0
 18 20  2  0
 15 21  1  0
 21 22  2  0
 22 23  1  0
 23 24  2  0
 24 25  1  0
 24 26  1  0
  8  4  1  0
 20 11  1  0
 26 21  1  0
 17 13  1  0
  1 27  1  0
  1 28  1  0
  1 29  1  0
  3 30  1  0
  3 31  1  0
  4 32  1  1
  5 33  1  0
  5 34  1  0
  6 35  1  0
  6 36  1  0
  7 37  1  0
  7 38  1  0
 12 39  1  0
 19 40  1  0
 19 41  1  0
 20 42  1  0
 22 43  1  0
 23 44  1  0
M  END
>  <Original_Name>  (17) 
CHEMBL110047

>  <ROSHAMBO_ComboTanimoto>  (17) 
1.156

>  <ROSHAMBO_ShapeTanimoto>  (17) 
0.748

>  <ROSHAMBO_ColorTanimoto>  (17) 
0.408

>  <ROSHAMBO_FitTverskyCombo>  (17) 
1.471

>  <ROSHAMBO_FitTversky>  (17) 
0.851

>  <ROSHAMBO_FitColorTversky>  (17) 
0.62

>  <ROSHAMBO_RefTverskyCombo>  (17) 
1.405

>  <ROSHAMBO_RefTversky>  (17) 
0.86

>  <ROSHAMBO_RefColorTversky>  (17) 
0.545

>  <ROSHAMBO_Overlap>  (17) 
1059.197

$$$$
CHEMBL325237_0_96
     RDKit          3D

 38 41  0  0  0  0  0  0  0  0999 V2000
    0.3996    2.8875    0.9568 N   0  0  0  0  0  0  0  0  0  0  0  0
    0.2209    1.4924    0.6756 C   0  0  0  0  0  0  0  0  0  0  0  0
   -1.0914    1.0064    0.6958 C   0  0  0  0  0  0  0  0  0  0  0  0
   -1.2974   -0.3144    0.4261 C   0  0  0  0  0  0  0  0  0  0  0  0
   -2.5972   -0.9265    0.4115 C   0  0  0  0  0  0  0  0  0  0  0  0
   -2.5419   -2.2485    0.4357 O   0  0  0  0  0  0  0  0  0  0  0  0
   -3.8721   -0.3797    0.3742 N   0  0  0  0  0  0  0  0  0  0  0  0
   -4.9980   -1.3432    0.3433 C   0  0  0  0  0  0  0  0  0  0  0  0
   -5.5934   -1.3606   -1.0491 C   0  0  0  0  0  0  0  0  0  0  0  0
   -6.1712    0.3648   -1.3265 S   0  0  0  0  0  0  0  0  0  0  0  0
   -5.6878    1.2611    0.1806 C   0  0  0  0  0  0  0  0  0  0  0  0
   -4.1817    1.0038    0.3781 C   0  0  0  0  0  0  0  0  0  0  0  0
   -0.1492   -1.0941    0.1465 C   0  0  0  0  0  0  0  0  0  0  0  0
    1.1216   -0.5880    0.1364 C   0  0  0  0  0  0  0  0  0  0  0  0
    2.3435   -1.1089   -0.0830 N   0  0  0  0  0  0  0  0  0  0  0  0
    3.2808   -0.1511    0.0475 C   0  0  0  0  0  0  0  0  0  0  0  0
    4.7282   -0.3174   -0.0914 C   0  0  0  0  0  0  0  0  0  0  0  0
    5.4150   -1.5098   -0.1714 C   0  0  0  0  0  0  0  0  0  0  0  0
    6.7537   -1.2215   -0.2903 C   0  0  0  0  0  0  0  0  0  0  0  0
    6.8142    0.1644   -0.2755 C   0  0  0  0  0  0  0  0  0  0  0  0
    8.4415    1.1397   -0.4095 Br  0  0  0  0  0  0  0  0  0  0  0  0
    5.5990    0.6344   -0.1578 O   0  0  0  0  0  0  0  0  0  0  0  0
    2.6010    0.9637    0.3482 N   0  0  0  0  0  0  0  0  0  0  0  0
    1.2815    0.7172    0.4062 N   0  0  0  0  0  0  0  0  0  0  0  0
    1.3450    3.2963    0.9548 H   0  0  0  0  0  0  0  0  0  0  0  0
   -0.4174    3.4805    1.1609 H   0  0  0  0  0  0  0  0  0  0  0  0
   -1.9359    1.6734    0.9236 H   0  0  0  0  0  0  0  0  0  0  0  0
   -4.6309   -2.3478    0.6002 H   0  0  0  0  0  0  0  0  0  0  0  0
   -5.7651   -1.0422    1.0720 H   0  0  0  0  0  0  0  0  0  0  0  0
   -4.8332   -1.6402   -1.7933 H   0  0  0  0  0  0  0  0  0  0  0  0
   -6.4070   -2.0944   -1.1464 H   0  0  0  0  0  0  0  0  0  0  0  0
   -5.8768    2.3380    0.0595 H   0  0  0  0  0  0  0  0  0  0  0  0
   -6.2675    0.9186    1.0505 H   0  0  0  0  0  0  0  0  0  0  0  0
   -3.6284    1.4934   -0.4368 H   0  0  0  0  0  0  0  0  0  0  0  0
   -3.8938    1.4126    1.3579 H   0  0  0  0  0  0  0  0  0  0  0  0
   -0.2862   -2.1630   -0.0741 H   0  0  0  0  0  0  0  0  0  0  0  0
    4.9700   -2.5154   -0.1448 H   0  0  0  0  0  0  0  0  0  0  0  0
    7.5898   -1.9309   -0.3776 H   0  0  0  0  0  0  0  0  0  0  0  0
  1  2  1  0
  2  3  2  0
  3  4  1  0
  4  5  1  0
  5  6  2  0
  5  7  1  0
  7  8  1  0
  8  9  1  0
  9 10  1  0
 10 11  1  0
 11 12  1  0
  4 13  2  0
 13 14  1  0
 14 15  2  0
 15 16  1  0
 16 17  1  0
 17 18  2  0
 18 19  1  0
 19 20  2  0
 20 21  1  0
 20 22  1  0
 16 23  2  0
 23 24  1  0
 24  2  1  0
 12  7  1  0
 24 14  1  0
 22 17  1  0
  1 25  1  0
  1 26  1  0
  3 27  1  0
  8 28  1  0
  8 29  1  0
  9 30  1  0
  9 31  1  0
 11 32  1  0
 11 33  1  0
 12 34  1  0
 12 35  1  0
 13 36  1  0
 18 37  1  0
 19 38  1  0
M  END
>  <Original_Name>  (18) 
CHEMBL325237

>  <ROSHAMBO_ComboTanimoto>  (18) 
1.151

>  <ROSHAMBO_ShapeTanimoto>  (18) 
0.717

>  <ROSHAMBO_ColorTanimoto>  (18) 
0.434

>  <ROSHAMBO_FitTverskyCombo>  (18) 
1.536

>  <ROSHAMBO_FitTversky>  (18) 
0.867

>  <ROSHAMBO_FitColorTversky>  (18) 
0.668

>  <ROSHAMBO_RefTverskyCombo>  (18) 
1.359

>  <ROSHAMBO_RefTversky>  (18) 
0.806

>  <ROSHAMBO_RefColorTversky>  (18) 
0.553

>  <ROSHAMBO_Overlap>  (18) 
987.649

$$$$
CHEMBL113967_0_42
     RDKit          3D

 43 46  0  0  0  0  0  0  0  0999 V2000
   -4.8621   -2.9150   -0.4281 C   0  0  0  0  0  0  0  0  0  0  0  0
   -4.9545   -1.4330   -0.6201 C   0  0  0  0  0  0  0  0  0  0  0  0
   -5.9124   -0.7804    0.3560 C   0  0  0  0  0  0  0  0  0  0  0  0
   -5.6794    0.6982    0.3863 C   0  0  0  0  0  0  0  0  0  0  0  0
   -4.9976    1.2609   -0.8228 C   0  0  0  0  0  0  0  0  0  0  0  0
   -3.6686    0.5857   -1.1004 C   0  0  0  0  0  0  0  0  0  0  0  0
   -3.6978   -0.7330   -0.4979 N   0  0  0  0  0  0  0  0  0  0  0  0
   -2.6068   -1.3281    0.1740 C   0  0  0  0  0  0  0  0  0  0  0  0
   -2.6754   -2.4872    0.6872 O   0  0  0  0  0  0  0  0  0  0  0  0
   -1.3134   -0.6684    0.3373 C   0  0  0  0  0  0  0  0  0  0  0  0
   -0.1541   -1.2062   -0.1774 C   0  0  0  0  0  0  0  0  0  0  0  0
    1.0726   -0.6074   -0.0343 C   0  0  0  0  0  0  0  0  0  0  0  0
    2.3495   -0.8787   -0.4096 N   0  0  0  0  0  0  0  0  0  0  0  0
    3.1626    0.0804    0.0181 C   0  0  0  0  0  0  0  0  0  0  0  0
    4.6061    0.1734   -0.1683 C   0  0  0  0  0  0  0  0  0  0  0  0
    5.5579   -0.7050    0.3699 C   0  0  0  0  0  0  0  0  0  0  0  0
    6.7888   -0.2731   -0.0369 C   0  0  0  0  0  0  0  0  0  0  0  0
    6.5850    0.8429   -0.8046 C   0  0  0  0  0  0  0  0  0  0  0  0
    7.9513    1.9036   -1.6651 Br  0  0  0  0  0  0  0  0  0  0  0  0
    5.2943    1.0524   -0.8441 O   0  0  0  0  0  0  0  0  0  0  0  0
    2.4172    0.9776    0.6720 N   0  0  0  0  0  0  0  0  0  0  0  0
    1.1409    0.5564    0.6394 N   0  0  0  0  0  0  0  0  0  0  0  0
    0.0309    1.1145    1.1576 C   0  0  0  0  0  0  0  0  0  0  0  0
    0.1657    2.3462    1.8609 N   0  0  0  0  0  0  0  0  0  0  0  0
   -1.2262    0.5237    1.0244 C   0  0  0  0  0  0  0  0  0  0  0  0
   -4.8478   -3.1453    0.6474 H   0  0  0  0  0  0  0  0  0  0  0  0
   -5.7318   -3.4002   -0.8954 H   0  0  0  0  0  0  0  0  0  0  0  0
   -3.9390   -3.2884   -0.8954 H   0  0  0  0  0  0  0  0  0  0  0  0
   -5.3168   -1.3434   -1.6548 H   0  0  0  0  0  0  0  0  0  0  0  0
   -6.9471   -0.9803    0.0405 H   0  0  0  0  0  0  0  0  0  0  0  0
   -5.7437   -1.1945    1.3610 H   0  0  0  0  0  0  0  0  0  0  0  0
   -6.6557    1.1947    0.4884 H   0  0  0  0  0  0  0  0  0  0  0  0
   -5.0019    0.8834    1.2329 H   0  0  0  0  0  0  0  0  0  0  0  0
   -5.6535    1.1230   -1.6950 H   0  0  0  0  0  0  0  0  0  0  0  0
   -4.8005    2.3262   -0.6327 H   0  0  0  0  0  0  0  0  0  0  0  0
   -3.5157    0.4961   -2.1861 H   0  0  0  0  0  0  0  0  0  0  0  0
   -2.8444    1.1792   -0.6780 H   0  0  0  0  0  0  0  0  0  0  0  0
   -0.2143   -2.1571   -0.7272 H   0  0  0  0  0  0  0  0  0  0  0  0
    5.3515   -1.5805    1.0030 H   0  0  0  0  0  0  0  0  0  0  0  0
    7.7579   -0.7335    0.2056 H   0  0  0  0  0  0  0  0  0  0  0  0
   -0.6641    2.7994    2.2695 H   0  0  0  0  0  0  0  0  0  0  0  0
    1.0929    2.7835    1.9607 H   0  0  0  0  0  0  0  0  0  0  0  0
   -2.1217    0.9954    1.4551 H   0  0  0  0  0  0  0  0  0  0  0  0
  1  2  1  0
  2  3  1  0
  3  4  1  0
  4  5  1  0
  5  6  1  0
  6  7  1  0
  7  8  1  0
  8  9  2  0
  8 10  1  0
 10 11  2  0
 11 12  1  0
 12 13  2  0
 13 14  1  0
 14 15  1  0
 15 16  2  0
 16 17  1  0
 17 18  2  0
 18 19  1  0
 18 20  1  0
 14 21  2  0
 21 22  1  0
 22 23  1  0
 23 24  1  0
 23 25  2  0
  7  2  1  0
 25 10  1  0
 22 12  1  0
 20 15  1  0
  1 26  1  0
  1 27  1  0
  1 28  1  0
  2 29  1  0
  3 30  1  0
  3 31  1  0
  4 32  1  0
  4 33  1  0
  5 34  1  0
  5 35  1  0
  6 36  1  0
  6 37  1  0
 11 38  1  0
 16 39  1  0
 17 40  1  0
 24 41  1  0
 24 42  1  0
 25 43  1  0
M  END
>  <Original_Name>  (19) 
CHEMBL113967

>  <ROSHAMBO_ComboTanimoto>  (19) 
1.144

>  <ROSHAMBO_ShapeTanimoto>  (19) 
0.741

>  <ROSHAMBO_ColorTanimoto>  (19) 
0.403

>  <ROSHAMBO_FitTverskyCombo>  (19) 
1.496

>  <ROSHAMBO_FitTversky>  (19) 
0.862

>  <ROSHAMBO_FitColorTversky>  (19) 
0.634

>  <ROSHAMBO_RefTverskyCombo>  (19) 
1.366

>  <ROSHAMBO_RefTversky>  (19) 
0.841

>  <ROSHAMBO_RefColorTversky>  (19) 
0.525

>  <ROSHAMBO_Overlap>  (19) 
1033.697

$$$$
CHEMBL113542_0_13
     RDKit          3D

 43 46  0  0  0  0  0  0  0  0999 V2000
   -7.0725    1.8336   -0.5016 C   0  0  0  0  0  0  0  0  0  0  0  0
   -6.0115    0.7553   -0.3851 C   0  0  0  0  0  0  0  0  0  0  0  0
   -6.6995   -0.4942    0.1251 C   0  0  0  0  0  0  0  0  0  0  0  0
   -5.7739   -1.4910    0.7013 C   0  0  0  0  0  0  0  0  0  0  0  0
   -4.2969   -1.2641    0.4235 C   0  0  0  0  0  0  0  0  0  0  0  0
   -3.9063    0.0877    0.4818 N   0  0  0  0  0  0  0  0  0  0  0  0
   -2.6041    0.5740    0.3954 C   0  0  0  0  0  0  0  0  0  0  0  0
   -2.5682    1.8934    0.4692 O   0  0  0  0  0  0  0  0  0  0  0  0
   -1.3437   -0.0803    0.2480 C   0  0  0  0  0  0  0  0  0  0  0  0
   -0.1936    0.7244    0.3244 C   0  0  0  0  0  0  0  0  0  0  0  0
    1.0499    0.2258    0.2087 N   0  0  0  0  0  0  0  0  0  0  0  0
    2.2553    0.7872    0.2490 N   0  0  0  0  0  0  0  0  0  0  0  0
    3.1999   -0.1413    0.0823 C   0  0  0  0  0  0  0  0  0  0  0  0
    4.6476    0.1062    0.0641 C   0  0  0  0  0  0  0  0  0  0  0  0
    5.6171   -0.6751    0.6253 C   0  0  0  0  0  0  0  0  0  0  0  0
    6.8363   -0.0695    0.3699 C   0  0  0  0  0  0  0  0  0  0  0  0
    6.5469    1.0715   -0.3465 C   0  0  0  0  0  0  0  0  0  0  0  0
    7.8822    2.3023   -0.9678 Br  0  0  0  0  0  0  0  0  0  0  0  0
    5.2537    1.1428   -0.5078 O   0  0  0  0  0  0  0  0  0  0  0  0
    2.5948   -1.3161   -0.0673 N   0  0  0  0  0  0  0  0  0  0  0  0
    1.2564   -1.0861    0.0117 C   0  0  0  0  0  0  0  0  0  0  0  0
    0.1906   -1.9550   -0.0769 C   0  0  0  0  0  0  0  0  0  0  0  0
    0.3341   -3.3589   -0.2743 N   0  0  0  0  0  0  0  0  0  0  0  0
   -1.0953   -1.4083    0.0463 C   0  0  0  0  0  0  0  0  0  0  0  0
   -4.9842    1.1044    0.6700 C   0  0  0  0  0  0  0  0  0  0  0  0
   -7.3848    2.1509    0.5043 H   0  0  0  0  0  0  0  0  0  0  0  0
   -6.6609    2.6957   -1.0468 H   0  0  0  0  0  0  0  0  0  0  0  0
   -7.9412    1.4358   -1.0468 H   0  0  0  0  0  0  0  0  0  0  0  0
   -5.5257    0.6361   -1.3648 H   0  0  0  0  0  0  0  0  0  0  0  0
   -7.4205   -0.2005    0.9022 H   0  0  0  0  0  0  0  0  0  0  0  0
   -7.1840   -0.9695   -0.7405 H   0  0  0  0  0  0  0  0  0  0  0  0
   -5.9155   -1.4912    1.7922 H   0  0  0  0  0  0  0  0  0  0  0  0
   -6.0249   -2.4456    0.2159 H   0  0  0  0  0  0  0  0  0  0  0  0
   -3.7141   -1.8255    1.1686 H   0  0  0  0  0  0  0  0  0  0  0  0
   -4.1091   -1.6067   -0.6048 H   0  0  0  0  0  0  0  0  0  0  0  0
   -0.3158    1.8056    0.4855 H   0  0  0  0  0  0  0  0  0  0  0  0
    5.4589   -1.6127    1.1783 H   0  0  0  0  0  0  0  0  0  0  0  0
    7.8309   -0.4260    0.6760 H   0  0  0  0  0  0  0  0  0  0  0  0
   -0.5011   -3.9588   -0.3326 H   0  0  0  0  0  0  0  0  0  0  0  0
    1.2731   -3.7738   -0.3588 H   0  0  0  0  0  0  0  0  0  0  0  0
   -1.9556   -2.0901   -0.0236 H   0  0  0  0  0  0  0  0  0  0  0  0
   -5.4191    1.0300    1.6776 H   0  0  0  0  0  0  0  0  0  0  0  0
   -4.6131    2.1352    0.5722 H   0  0  0  0  0  0  0  0  0  0  0  0
  1  2  1  0
  2  3  1  0
  3  4  1  0
  4  5  1  0
  5  6  1  0
  6  7  1  0
  7  8  2  0
  7  9  1  0
  9 10  2  0
 10 11  1  0
 11 12  1  0
 12 13  2  0
 13 14  1  0
 14 15  2  0
 15 16  1  0
 16 17  2  0
 17 18  1  0
 17 19  1  0
 13 20  1  0
 20 21  2  0
 21 22  1  0
 22 23  1  0
 22 24  2  0
  6 25  1  0
 25  2  1  0
 24  9  1  0
 21 11  1  0
 19 14  1  0
  1 26  1  0
  1 27  1  0
  1 28  1  0
  2 29  1  0
  3 30  1  0
  3 31  1  0
  4 32  1  0
  4 33  1  0
  5 34  1  0
  5 35  1  0
 10 36  1  0
 15 37  1  0
 16 38  1  0
 23 39  1  0
 23 40  1  0
 24 41  1  0
 25 42  1  0
 25 43  1  0
M  END
>  <Original_Name>  (20) 
CHEMBL113542

>  <ROSHAMBO_ComboTanimoto>  (20) 
1.135

>  <ROSHAMBO_ShapeTanimoto>  (20) 
0.723

>  <ROSHAMBO_ColorTanimoto>  (20) 
0.412

>  <ROSHAMBO_FitTverskyCombo>  (20) 
1.495

>  <ROSHAMBO_FitTversky>  (20) 
0.851

>  <ROSHAMBO_FitColorTversky>  (20) 
0.644

>  <ROSHAMBO_RefTverskyCombo>  (20) 
1.361

>  <ROSHAMBO_RefTversky>  (20) 
0.828

>  <ROSHAMBO_RefColorTversky>  (20) 
0.533

>  <ROSHAMBO_Overlap>  (20) 
1017.128

$$$$
CHEMBL334873_0_15
     RDKit          3D

 37 39  0  0  0  0  0  0  0  0999 V2000
    6.4301    1.0510   -0.0093 C   0  0  0  0  0  0  0  0  0  0  0  0
    5.6913   -0.0109    0.0302 C   0  0  0  0  0  0  0  0  0  0  0  0
    4.8402   -1.2462    0.0897 C   0  0  0  0  0  0  0  0  0  0  0  0
    3.4126   -0.7462    0.1467 N   0  0  0  0  0  0  0  0  0  0  0  0
    2.4120   -1.3328    0.0333 C   0  0  0  0  0  0  0  0  0  0  0  0
    2.3886   -2.6913   -0.1211 O   0  0  0  0  0  0  0  0  0  0  0  0
    1.0250   -0.9786   -0.0083 C   0  0  0  0  0  0  0  0  0  0  0  0
    0.9815    0.5110    0.1538 C   0  0  0  0  0  0  0  0  0  0  0  0
   -0.3057    0.8202    0.1652 N   0  0  0  0  0  0  0  0  0  0  0  0
   -1.0913   -0.3156    0.0352 C   0  0  0  0  0  0  0  0  0  0  0  0
   -2.4991   -0.1454    0.0352 C   0  0  0  0  0  0  0  0  0  0  0  0
   -3.5359   -0.9153    0.1200 C   0  0  0  0  0  0  0  0  0  0  0  0
   -4.9323   -0.2271    0.0429 C   0  0  0  0  0  0  0  0  0  0  0  0
   -4.9124    0.9625   -0.5939 C   0  0  0  0  0  0  0  0  0  0  0  0
   -6.8086    1.3902   -0.1938 S   0  0  0  0  0  0  0  0  0  0  0  0
   -7.1382   -0.0538    0.6711 C   0  0  0  0  0  0  0  0  0  0  0  0
   -5.9959   -0.8424    0.7167 C   0  0  0  0  0  0  0  0  0  0  0  0
   -0.1908   -1.2806   -0.0540 N   0  0  0  0  0  0  0  0  0  0  0  0
   -0.6733   -2.7054   -0.1684 C   0  0  0  0  0  0  0  0  0  0  0  0
    2.0746    1.1783    0.2816 N   0  0  0  0  0  0  0  0  0  0  0  0
    1.9601    2.6572    0.4181 C   0  0  0  0  0  0  0  0  0  0  0  0
    3.3543    0.6619    0.2942 C   0  0  0  0  0  0  0  0  0  0  0  0
    4.2722    1.4057    0.4180 O   0  0  0  0  0  0  0  0  0  0  0  0
    7.0581    1.9535   -0.0428 H   0  0  0  0  0  0  0  0  0  0  0  0
    4.9961   -1.8648   -0.8064 H   0  0  0  0  0  0  0  0  0  0  0  0
    5.0894   -1.8741    0.9577 H   0  0  0  0  0  0  0  0  0  0  0  0
   -2.7828    0.9129   -0.0618 H   0  0  0  0  0  0  0  0  0  0  0  0
   -3.4364   -2.0042    0.2407 H   0  0  0  0  0  0  0  0  0  0  0  0
   -4.1254    1.5028   -1.1403 H   0  0  0  0  0  0  0  0  0  0  0  0
   -8.1071   -0.3155    1.1214 H   0  0  0  0  0  0  0  0  0  0  0  0
   -5.9342   -1.8208    1.2157 H   0  0  0  0  0  0  0  0  0  0  0  0
   -0.8158   -3.1262    0.8380 H   0  0  0  0  0  0  0  0  0  0  0  0
   -1.6287   -2.7264   -0.7132 H   0  0  0  0  0  0  0  0  0  0  0  0
    0.0727   -3.3026   -0.7132 H   0  0  0  0  0  0  0  0  0  0  0  0
    1.9393    2.9265    1.4845 H   0  0  0  0  0  0  0  0  0  0  0  0
    2.8237    3.1379   -0.0646 H   0  0  0  0  0  0  0  0  0  0  0  0
    1.0328    2.9993   -0.0646 H   0  0  0  0  0  0  0  0  0  0  0  0
  1  2  3  0
  2  3  1  0
  3  4  1  0
  4  5  1  0
  5  6  2  0
  5  7  1  0
  7  8  2  0
  8  9  1  0
  9 10  2  0
 10 11  1  0
 11 12  2  0
 12 13  1  0
 13 14  2  0
 14 15  1  0
 15 16  1  0
 16 17  2  0
 10 18  1  0
 18 19  1  0
  8 20  1  0
 20 21  1  0
 20 22  1  0
 22 23  2  0
 22  4  1  0
 18  7  1  0
 17 13  1  0
  1 24  1  0
  3 25  1  0
  3 26  1  0
 11 27  1  0
 12 28  1  0
 14 29  1  0
 16 30  1  0
 17 31  1  0
 19 32  1  0
 19 33  1  0
 19 34  1  0
 21 35  1  0
 21 36  1  0
 21 37  1  0
M  END
>  <Original_Name>  (21) 
CHEMBL334873

>  <ROSHAMBO_ComboTanimoto>  (21) 
1.123

>  <ROSHAMBO_ShapeTanimoto>  (21) 
0.782

>  <ROSHAMBO_ColorTanimoto>  (21) 
0.341

>  <ROSHAMBO_FitTverskyCombo>  (21) 
1.586

>  <ROSHAMBO_FitTversky>  (21) 
0.925

>  <ROSHAMBO_FitColorTversky>  (21) 
0.661

>  <ROSHAMBO_RefTverskyCombo>  (21) 
1.249

>  <ROSHAMBO_RefTversky>  (21) 
0.836

>  <ROSHAMBO_RefColorTversky>  (21) 
0.413

>  <ROSHAMBO_Overlap>  (21) 
1022.643

$$$$
CHEMBL1092271_0_76
     RDKit          3D

 30 33  0  0  0  0  0  0  0  0999 V2000
   -3.8162    0.4278   -1.2556 C   0  0  0  0  0  0  0  0  0  0  0  0
   -3.4509   -0.7430   -0.7871 C   0  0  0  0  0  0  0  0  0  0  0  0
   -2.9537   -0.9546    0.5978 C   0  0  0  0  0  0  0  0  0  0  0  0
   -1.5686   -1.5059    0.4230 N   0  0  0  0  0  0  0  0  0  0  0  0
   -1.4670   -2.8286    0.3352 C   0  0  0  0  0  0  0  0  0  0  0  0
   -2.5217   -4.0632    0.3680 S   0  0  0  0  0  0  0  0  0  0  0  0
    0.3581   -3.0081    0.1426 S   0  0  0  0  0  0  0  0  0  0  0  0
    0.7188   -1.3266    0.2052 C   0  0  0  0  0  0  0  0  0  0  0  0
   -0.5229   -0.7410    0.3635 C   0  0  0  0  0  0  0  0  0  0  0  0
   -0.4492    0.6404    0.4371 N   0  0  0  0  0  0  0  0  0  0  0  0
    0.6669    1.3262    0.3659 C   0  0  0  0  0  0  0  0  0  0  0  0
    1.8571    0.7643    0.2142 N   0  0  0  0  0  0  0  0  0  0  0  0
    3.0757    1.2150    0.1190 N   0  0  0  0  0  0  0  0  0  0  0  0
    3.9352    0.1619   -0.0285 C   0  0  0  0  0  0  0  0  0  0  0  0
    5.3666    0.3462   -0.1605 C   0  0  0  0  0  0  0  0  0  0  0  0
    6.3083    0.3837    0.8742 C   0  0  0  0  0  0  0  0  0  0  0  0
    7.5531    0.5777    0.3086 C   0  0  0  0  0  0  0  0  0  0  0  0
    7.3118    0.6502   -1.0559 C   0  0  0  0  0  0  0  0  0  0  0  0
    6.0337    0.5106   -1.2722 O   0  0  0  0  0  0  0  0  0  0  0  0
    3.1716   -0.9423   -0.0170 N   0  0  0  0  0  0  0  0  0  0  0  0
    1.9019   -0.5728    0.1313 C   0  0  0  0  0  0  0  0  0  0  0  0
   -4.1758    0.5180   -2.2913 H   0  0  0  0  0  0  0  0  0  0  0  0
   -3.7627    1.3186   -0.6125 H   0  0  0  0  0  0  0  0  0  0  0  0
   -3.5162   -1.6143   -1.4554 H   0  0  0  0  0  0  0  0  0  0  0  0
   -2.9263   -0.0037    1.1500 H   0  0  0  0  0  0  0  0  0  0  0  0
   -3.6018   -1.6306    1.1748 H   0  0  0  0  0  0  0  0  0  0  0  0
    0.6118    2.4226    0.4356 H   0  0  0  0  0  0  0  0  0  0  0  0
    6.0946    0.2775    1.9480 H   0  0  0  0  0  0  0  0  0  0  0  0
    8.5210    0.6570    0.8252 H   0  0  0  0  0  0  0  0  0  0  0  0
    8.0770    0.8013   -1.8315 H   0  0  0  0  0  0  0  0  0  0  0  0
  1  2  2  3
  2  3  1  0
  3  4  1  0
  4  5  1  0
  5  6  2  0
  5  7  1  0
  7  8  1  0
  8  9  2  0
  9 10  1  0
 10 11  2  0
 11 12  1  0
 12 13  1  0
 13 14  2  0
 14 15  1  0
 15 16  2  0
 16 17  1  0
 17 18  2  0
 18 19  1  0
 14 20  1  0
 20 21  2  0
  9  4  1  0
 21 12  1  0
 21  8  1  0
 19 15  1  0
  1 22  1  0
  1 23  1  0
  2 24  1  0
  3 25  1  0
  3 26  1  0
 11 27  1  0
 16 28  1  0
 17 29  1  0
 18 30  1  0
M  END
>  <Original_Name>  (22) 
CHEMBL1092271

>  <ROSHAMBO_ComboTanimoto>  (22) 
1.101

>  <ROSHAMBO_ShapeTanimoto>  (22) 
0.693

>  <ROSHAMBO_ColorTanimoto>  (22) 
0.409

>  <ROSHAMBO_FitTverskyCombo>  (22) 
1.544

>  <ROSHAMBO_FitTversky>  (22) 
0.895

>  <ROSHAMBO_FitColorTversky>  (22) 
0.649

>  <ROSHAMBO_RefTverskyCombo>  (22) 
1.279

>  <ROSHAMBO_RefTversky>  (22) 
0.754

>  <ROSHAMBO_RefColorTversky>  (22) 
0.524

>  <ROSHAMBO_Overlap>  (22) 
920.304

$$$$
CHEMBL601628_0_37
     RDKit          3D

 44 46  0  0  0  0  0  0  0  0999 V2000
   -6.4304    1.0202    0.7984 C   0  0  0  0  0  0  0  0  0  0  0  0
   -6.1128    0.4871   -0.5545 C   0  0  0  0  0  0  0  0  0  0  0  0
   -4.6612    0.1242   -0.7339 C   0  0  0  0  0  0  0  0  0  0  0  0
   -4.1937   -0.9207    0.2181 C   0  0  0  0  0  0  0  0  0  0  0  0
   -2.8003   -1.2931    0.0688 N   0  0  0  0  0  0  0  0  0  0  0  0
   -1.7163   -0.4004    0.2218 C   0  0  0  0  0  0  0  0  0  0  0  0
   -2.0205    0.8076    0.5131 O   0  0  0  0  0  0  0  0  0  0  0  0
   -0.3066   -0.7789    0.0678 C   0  0  0  0  0  0  0  0  0  0  0  0
    0.0870   -2.0540   -0.2433 C   0  0  0  0  0  0  0  0  0  0  0  0
    1.4309   -2.3653   -0.3787 C   0  0  0  0  0  0  0  0  0  0  0  0
    1.8014   -3.6934   -0.7008 N   0  0  0  0  0  0  0  0  0  0  0  0
    2.3834   -1.3752   -0.1970 C   0  0  0  0  0  0  0  0  0  0  0  0
    3.8111   -1.6595   -0.3302 C   0  0  0  0  0  0  0  0  0  0  0  0
    4.1261   -2.8519   -0.6186 O   0  0  0  0  0  0  0  0  0  0  0  0
    4.8398   -0.6446   -0.1464 C   0  0  0  0  0  0  0  0  0  0  0  0
    6.1811   -0.9340   -0.2766 C   0  0  0  0  0  0  0  0  0  0  0  0
    7.1440    0.0593   -0.0947 C   0  0  0  0  0  0  0  0  0  0  0  0
    6.7860    1.3530    0.2190 C   0  0  0  0  0  0  0  0  0  0  0  0
    5.4417    1.6348    0.3476 C   0  0  0  0  0  0  0  0  0  0  0  0
    4.4750    0.6474    0.1672 C   0  0  0  0  0  0  0  0  0  0  0  0
    3.0545    0.9406    0.3021 C   0  0  0  0  0  0  0  0  0  0  0  0
    2.7052    2.1137    0.5877 O   0  0  0  0  0  0  0  0  0  0  0  0
    2.0228   -0.0810    0.1169 C   0  0  0  0  0  0  0  0  0  0  0  0
    0.6846    0.1939    0.2437 C   0  0  0  0  0  0  0  0  0  0  0  0
    0.2998    1.5256    0.5673 N   0  0  0  0  0  0  0  0  0  0  0  0
   -6.0262    0.3417    1.5641 H   0  0  0  0  0  0  0  0  0  0  0  0
   -5.9784    2.0162    0.9155 H   0  0  0  0  0  0  0  0  0  0  0  0
   -7.5215    1.0967    0.9155 H   0  0  0  0  0  0  0  0  0  0  0  0
   -6.7203   -0.4140   -0.7248 H   0  0  0  0  0  0  0  0  0  0  0  0
   -6.3376    1.2855   -1.2770 H   0  0  0  0  0  0  0  0  0  0  0  0
   -4.5184   -0.2483   -1.7590 H   0  0  0  0  0  0  0  0  0  0  0  0
   -4.0716    1.0318   -0.5369 H   0  0  0  0  0  0  0  0  0  0  0  0
   -4.3403   -0.5434    1.2409 H   0  0  0  0  0  0  0  0  0  0  0  0
   -4.7827   -1.8244    0.0030 H   0  0  0  0  0  0  0  0  0  0  0  0
   -2.5868   -2.2734   -0.1641 H   0  0  0  0  0  0  0  0  0  0  0  0
   -0.6709   -2.8381   -0.3870 H   0  0  0  0  0  0  0  0  0  0  0  0
    2.7961   -3.9398   -0.8047 H   0  0  0  0  0  0  0  0  0  0  0  0
    1.0762   -4.4131   -0.8313 H   0  0  0  0  0  0  0  0  0  0  0  0
    6.4955   -1.9580   -0.5264 H   0  0  0  0  0  0  0  0  0  0  0  0
    8.2087   -0.1947   -0.2036 H   0  0  0  0  0  0  0  0  0  0  0  0
    7.5467    2.1345    0.3620 H   0  0  0  0  0  0  0  0  0  0  0  0
    5.1267    2.6587    0.5974 H   0  0  0  0  0  0  0  0  0  0  0  0
   -0.6972    1.7632    0.6693 H   0  0  0  0  0  0  0  0  0  0  0  0
    1.0183    2.2516    0.6996 H   0  0  0  0  0  0  0  0  0  0  0  0
  1  2  1  0
  2  3  1  0
  3  4  1  0
  4  5  1  0
  5  6  1  0
  6  7  2  0
  6  8  1  0
  8  9  2  0
  9 10  1  0
 10 11  1  0
 10 12  2  0
 12 13  1  0
 13 14  2  0
 13 15  1  0
 15 16  2  0
 16 17  1  0
 17 18  2  0
 18 19  1  0
 19 20  2  0
 20 21  1  0
 21 22  2  0
 21 23  1  0
 23 24  2  0
 24 25  1  0
 24  8  1  0
 23 12  1  0
 20 15  1  0
  1 26  1  0
  1 27  1  0
  1 28  1  0
  2 29  1  0
  2 30  1  0
  3 31  1  0
  3 32  1  0
  4 33  1  0
  4 34  1  0
  5 35  1  0
  9 36  1  0
 11 37  1  0
 11 38  1  0
 16 39  1  0
 17 40  1  0
 18 41  1  0
 19 42  1  0
 25 43  1  0
 25 44  1  0
M  END
>  <Original_Name>  (23) 
CHEMBL601628

>  <ROSHAMBO_ComboTanimoto>  (23) 
1.082

>  <ROSHAMBO_ShapeTanimoto>  (23) 
0.752

>  <ROSHAMBO_ColorTanimoto>  (23) 
0.331

>  <ROSHAMBO_FitTverskyCombo>  (23) 
1.415

>  <ROSHAMBO_FitTversky>  (23) 
0.874

>  <ROSHAMBO_FitColorTversky>  (23) 
0.542

>  <ROSHAMBO_RefTverskyCombo>  (23) 
1.303

>  <ROSHAMBO_RefTversky>  (23) 
0.843

>  <ROSHAMBO_RefColorTversky>  (23) 
0.459

>  <ROSHAMBO_Overlap>  (23) 
1035.793

$$$$
CHEMBL85549_0_22
     RDKit          3D

 48 51  0  0  0  0  0  0  0  0999 V2000
    7.1471   -0.3559   -0.6402 O   0  0  0  0  0  0  0  0  0  0  0  0
    5.9839   -1.1108   -0.7234 C   0  0  0  0  0  0  0  0  0  0  0  0
    4.7863   -0.1949   -0.7779 C   0  0  1  0  0  0  0  0  0  0  0  0
    3.5929   -0.8535   -0.8611 O   0  0  0  0  0  0  0  0  0  0  0  0
    2.8915   -0.6272    0.3122 C   0  0  0  0  0  0  0  0  0  0  0  0
    1.5122   -0.9284    0.2547 N   0  0  0  0  0  0  0  0  0  0  0  0
    1.0008   -2.1623    0.0980 C   0  0  0  0  0  0  0  0  0  0  0  0
   -0.3425   -2.1171    0.0832 N   0  0  0  0  0  0  0  0  0  0  0  0
   -0.7196   -0.8517    0.2303 C   0  0  0  0  0  0  0  0  0  0  0  0
   -1.9678   -0.2545    0.2837 C   0  0  0  0  0  0  0  0  0  0  0  0
   -3.1679   -1.0043    0.1750 N   0  0  0  0  0  0  0  0  0  0  0  0
   -4.4218   -0.3008    0.2412 C   0  0  0  0  0  0  0  0  0  0  0  0
   -4.5387    0.7163   -0.8570 C   0  0  0  0  0  0  0  0  0  0  0  0
   -5.9546    0.9193   -1.3203 C   0  0  0  0  0  0  0  0  0  0  0  0
   -6.9511    0.8377   -0.1921 C   0  0  0  0  0  0  0  0  0  0  0  0
   -6.8292   -0.4092    0.6239 C   0  0  0  0  0  0  0  0  0  0  0  0
   -5.6072   -1.2224    0.3221 C   0  0  0  0  0  0  0  0  0  0  0  0
   -1.9538    1.0805    0.4452 N   0  0  0  0  0  0  0  0  0  0  0  0
   -0.8362    1.8117    0.5504 C   0  0  0  0  0  0  0  0  0  0  0  0
    0.3477    1.1996    0.4943 N   0  0  0  0  0  0  0  0  0  0  0  0
    0.4319   -0.1065    0.3377 C   0  0  0  0  0  0  0  0  0  0  0  0
    3.2146    0.8150    0.5964 C   0  0  2  0  0  0  0  0  0  0  0  0
    2.8106    1.6581   -0.4472 O   0  0  0  0  0  0  0  0  0  0  0  0
    4.7422    0.7204    0.4281 C   0  0  2  0  0  0  0  0  0  0  0  0
    5.3096    1.9485    0.2023 O   0  0  0  0  0  0  0  0  0  0  0  0
    7.3765   -0.2069    0.3112 H   0  0  0  0  0  0  0  0  0  0  0  0
    6.0133   -1.7289   -1.6328 H   0  0  0  0  0  0  0  0  0  0  0  0
    5.9065   -1.7595    0.1616 H   0  0  0  0  0  0  0  0  0  0  0  0
    4.9171    0.3865   -1.7025 H   0  0  0  0  0  0  0  0  0  0  0  0
    3.1889   -1.3048    1.1261 H   0  0  0  0  0  0  0  0  0  0  0  0
    1.5982   -3.0803   -0.0039 H   0  0  0  0  0  0  0  0  0  0  0  0
   -3.1422   -2.0266    0.0519 H   0  0  0  0  0  0  0  0  0  0  0  0
   -4.4283    0.2556    1.1900 H   0  0  0  0  0  0  0  0  0  0  0  0
   -4.1492    1.6767   -0.4884 H   0  0  0  0  0  0  0  0  0  0  0  0
   -3.9617    0.3420   -1.7154 H   0  0  0  0  0  0  0  0  0  0  0  0
   -6.0332    1.9115   -1.7887 H   0  0  0  0  0  0  0  0  0  0  0  0
   -6.1908    0.1148   -2.0323 H   0  0  0  0  0  0  0  0  0  0  0  0
   -6.7988    1.7030    0.4699 H   0  0  0  0  0  0  0  0  0  0  0  0
   -7.9530    0.8301   -0.6460 H   0  0  0  0  0  0  0  0  0  0  0  0
   -6.8011   -0.1252    1.6863 H   0  0  0  0  0  0  0  0  0  0  0  0
   -7.6971   -1.0372    0.3741 H   0  0  0  0  0  0  0  0  0  0  0  0
   -5.4477   -1.9612    1.1214 H   0  0  0  0  0  0  0  0  0  0  0  0
   -5.7362   -1.7516   -0.6336 H   0  0  0  0  0  0  0  0  0  0  0  0
   -0.8940    2.9023    0.6813 H   0  0  0  0  0  0  0  0  0  0  0  0
    2.7755    1.1903    1.5326 H   0  0  0  0  0  0  0  0  0  0  0  0
    2.4150    2.4837   -0.0702 H   0  0  0  0  0  0  0  0  0  0  0  0
    5.3054    0.3588    1.3011 H   0  0  0  0  0  0  0  0  0  0  0  0
    5.5105    2.3835    1.0686 H   0  0  0  0  0  0  0  0  0  0  0  0
  1  2  1  0
  2  3  1  0
  3  4  1  0
  4  5  1  0
  5  6  1  0
  6  7  1  0
  7  8  2  0
  8  9  1  0
  9 10  2  0
 10 11  1  0
 11 12  1  0
 12 13  1  0
 13 14  1  0
 14 15  1  0
 15 16  1  0
 16 17  1  0
 10 18  1  0
 18 19  2  0
 19 20  1  0
 20 21  2  0
  5 22  1  0
 22 23  1  0
 22 24  1  0
 24 25  1  0
 24  3  1  0
 21  6  1  0
 21  9  1  0
 17 12  1  0
  1 26  1  0
  2 27  1  0
  2 28  1  0
  3 29  1  6
  5 30  1  0
  7 31  1  0
 11 32  1  0
 12 33  1  0
 13 34  1  0
 13 35  1  0
 14 36  1  0
 14 37  1  0
 15 38  1  0
 15 39  1  0
 16 40  1  0
 16 41  1  0
 17 42  1  0
 17 43  1  0
 19 44  1  0
 22 45  1  1
 23 46  1  0
 24 47  1  1
 25 48  1  0
M  END
>  <Original_Name>  (24) 
CHEMBL85549

>  <ROSHAMBO_ComboTanimoto>  (24) 
1.075

>  <ROSHAMBO_ShapeTanimoto>  (24) 
0.761

>  <ROSHAMBO_ColorTanimoto>  (24) 
0.314

>  <ROSHAMBO_FitTverskyCombo>  (24) 
1.331

>  <ROSHAMBO_FitTversky>  (24) 
0.872

>  <ROSHAMBO_FitColorTversky>  (24) 
0.459

>  <ROSHAMBO_RefTverskyCombo>  (24) 
1.356

>  <ROSHAMBO_RefTversky>  (24) 
0.856

>  <ROSHAMBO_RefColorTversky>  (24) 
0.5

>  <ROSHAMBO_Overlap>  (24) 
1052.5

$$$$
CHEMBL609603_0_26
     RDKit          3D

 35 37  0  0  0  0  0  0  0  0999 V2000
    1.2661    3.5056    0.3594 N   0  0  0  0  0  0  0  0  0  0  0  0
    1.5261    2.1243    0.2664 C   0  0  0  0  0  0  0  0  0  0  0  0
    0.5131    1.2109    0.1963 N   0  0  0  0  0  0  0  0  0  0  0  0
    0.7686   -0.1131    0.1073 C   0  0  0  0  0  0  0  0  0  0  0  0
   -0.3147   -1.0831    0.0323 C   0  0  0  0  0  0  0  0  0  0  0  0
   -0.0249   -2.2977   -0.0473 O   0  0  0  0  0  0  0  0  0  0  0  0
   -1.6530   -0.6794    0.0479 N   0  0  0  0  0  0  0  0  0  0  0  0
   -2.7795   -1.6139   -0.0251 C   0  0  0  0  0  0  0  0  0  0  0  0
   -4.0513   -0.8391    0.0139 C   0  0  0  0  0  0  0  0  0  0  0  0
   -4.8145   -0.7892    1.1547 C   0  0  0  0  0  0  0  0  0  0  0  0
   -6.0027   -0.0789    1.2293 C   0  0  0  0  0  0  0  0  0  0  0  0
   -6.4609    0.6148    0.1291 C   0  0  0  0  0  0  0  0  0  0  0  0
   -5.6981    0.5784   -1.0469 C   0  0  0  0  0  0  0  0  0  0  0  0
   -4.5245   -0.1411   -1.0731 C   0  0  0  0  0  0  0  0  0  0  0  0
   -3.5855   -0.1762   -2.5481 Cl  0  0  0  0  0  0  0  0  0  0  0  0
    2.0608   -0.4909    0.0907 N   0  0  0  0  0  0  0  0  0  0  0  0
    3.0736    0.3851    0.1582 C   0  0  0  0  0  0  0  0  0  0  0  0
    4.4760   -0.0122    0.1403 C   0  0  0  0  0  0  0  0  0  0  0  0
    5.5735    0.6751   -0.3499 C   0  0  0  0  0  0  0  0  0  0  0  0
    6.6981   -0.0989   -0.1470 C   0  0  0  0  0  0  0  0  0  0  0  0
    6.2225   -1.2448    0.4698 C   0  0  0  0  0  0  0  0  0  0  0  0
    4.9205   -1.1353    0.6101 O   0  0  0  0  0  0  0  0  0  0  0  0
    2.7892    1.6893    0.2457 N   0  0  0  0  0  0  0  0  0  0  0  0
    2.0477    4.1744    0.4110 H   0  0  0  0  0  0  0  0  0  0  0  0
    0.2944    3.8468    0.3758 H   0  0  0  0  0  0  0  0  0  0  0  0
   -1.8581    0.3278    0.1143 H   0  0  0  0  0  0  0  0  0  0  0  0
   -2.7243   -2.1865   -0.9627 H   0  0  0  0  0  0  0  0  0  0  0  0
   -2.7414   -2.3114    0.8247 H   0  0  0  0  0  0  0  0  0  0  0  0
   -4.4690   -1.3350    2.0451 H   0  0  0  0  0  0  0  0  0  0  0  0
   -6.5797   -0.0687    2.1658 H   0  0  0  0  0  0  0  0  0  0  0  0
   -7.4018    1.1829    0.1729 H   0  0  0  0  0  0  0  0  0  0  0  0
   -6.0351    1.1209   -1.9425 H   0  0  0  0  0  0  0  0  0  0  0  0
    5.5527    1.6690   -0.8208 H   0  0  0  0  0  0  0  0  0  0  0  0
    7.7379    0.1401   -0.4148 H   0  0  0  0  0  0  0  0  0  0  0  0
    6.8327   -2.1027    0.7886 H   0  0  0  0  0  0  0  0  0  0  0  0
  1  2  1  0
  2  3  2  0
  3  4  1  0
  4  5  1  0
  5  6  2  0
  5  7  1  0
  7  8  1  0
  8  9  1  0
  9 10  2  0
 10 11  1  0
 11 12  2  0
 12 13  1  0
 13 14  2  0
 14 15  1  0
  4 16  2  0
 16 17  1  0
 17 18  1  0
 18 19  2  0
 19 20  1  0
 20 21  2  0
 21 22  1  0
 17 23  2  0
 23  2  1  0
 14  9  1  0
 22 18  1  0
  1 24  1  0
  1 25  1  0
  7 26  1  0
  8 27  1  0
  8 28  1  0
 10 29  1  0
 11 30  1  0
 12 31  1  0
 13 32  1  0
 19 33  1  0
 20 34  1  0
 21 35  1  0
M  END
>  <Original_Name>  (25) 
CHEMBL609603

>  <ROSHAMBO_ComboTanimoto>  (25) 
1.066

>  <ROSHAMBO_ShapeTanimoto>  (25) 
0.733

>  <ROSHAMBO_ColorTanimoto>  (25) 
0.333

>  <ROSHAMBO_FitTverskyCombo>  (25) 
1.467

>  <ROSHAMBO_FitTversky>  (25) 
0.896

>  <ROSHAMBO_FitColorTversky>  (25) 
0.571

>  <ROSHAMBO_RefTverskyCombo>  (25) 
1.246

>  <ROSHAMBO_RefTversky>  (25) 
0.801

>  <ROSHAMBO_RefColorTversky>  (25) 
0.445

>  <ROSHAMBO_Overlap>  (25) 
979.345

$$$$
CHEMBL178589_0_39
     RDKit          3D

 31 34  0  0  0  0  0  0  0  0999 V2000
    1.2369   -3.4288   -0.1136 N   0  0  0  0  0  0  0  0  0  0  0  0
    1.4604   -2.0318   -0.0526 C   0  0  0  0  0  0  0  0  0  0  0  0
    2.6780   -1.4921   -0.0374 N   0  0  0  0  0  0  0  0  0  0  0  0
    2.9224   -0.1674    0.0203 C   0  0  0  0  0  0  0  0  0  0  0  0
    4.3100    0.2633    0.0293 C   0  0  0  0  0  0  0  0  0  0  0  0
    5.3474   -0.6426   -0.0191 C   0  0  0  0  0  0  0  0  0  0  0  0
    6.6488   -0.1867   -0.0084 C   0  0  0  0  0  0  0  0  0  0  0  0
    6.9628    1.1542    0.0495 C   0  0  0  0  0  0  0  0  0  0  0  0
    5.9324    2.0159    0.0959 N   0  0  0  0  0  0  0  0  0  0  0  0
    4.6321    1.5868    0.0863 C   0  0  0  0  0  0  0  0  0  0  0  0
    1.8486    0.6738    0.0660 C   0  0  0  0  0  0  0  0  0  0  0  0
    0.5459    0.1644    0.0529 C   0  0  0  0  0  0  0  0  0  0  0  0
   -0.6795    0.7302    0.0874 N   0  0  0  0  0  0  0  0  0  0  0  0
   -1.5956   -0.2575    0.0498 C   0  0  0  0  0  0  0  0  0  0  0  0
   -3.0574   -0.1361    0.0661 C   0  0  0  0  0  0  0  0  0  0  0  0
   -3.9467   -1.0887   -0.3960 C   0  0  0  0  0  0  0  0  0  0  0  0
   -5.2264   -0.6005   -0.2060 C   0  0  0  0  0  0  0  0  0  0  0  0
   -5.0526    0.6415    0.3699 C   0  0  0  0  0  0  0  0  0  0  0  0
   -3.7684    0.8667    0.5082 O   0  0  0  0  0  0  0  0  0  0  0  0
   -0.9010   -1.4046   -0.0068 N   0  0  0  0  0  0  0  0  0  0  0  0
    0.4018   -1.1667   -0.0058 N   0  0  0  0  0  0  0  0  0  0  0  0
    0.2748   -3.7964   -0.1230 H   0  0  0  0  0  0  0  0  0  0  0  0
    2.0363   -4.0772   -0.1487 H   0  0  0  0  0  0  0  0  0  0  0  0
    5.1389   -1.7217   -0.0661 H   0  0  0  0  0  0  0  0  0  0  0  0
    7.4672   -0.9208   -0.0474 H   0  0  0  0  0  0  0  0  0  0  0  0
    8.0063    1.5023    0.0574 H   0  0  0  0  0  0  0  0  0  0  0  0
    3.8237    2.3318    0.1258 H   0  0  0  0  0  0  0  0  0  0  0  0
    2.0089    1.7610    0.1137 H   0  0  0  0  0  0  0  0  0  0  0  0
   -3.6831   -2.0616   -0.8364 H   0  0  0  0  0  0  0  0  0  0  0  0
   -6.1761   -1.0945   -0.4589 H   0  0  0  0  0  0  0  0  0  0  0  0
   -5.8588    1.3294    0.6645 H   0  0  0  0  0  0  0  0  0  0  0  0
  1  2  1  0
  2  3  2  0
  3  4  1  0
  4  5  1  0
  5  6  2  0
  6  7  1  0
  7  8  2  0
  8  9  1  0
  9 10  2  0
  4 11  2  0
 11 12  1  0
 12 13  2  0
 13 14  1  0
 14 15  1  0
 15 16  2  0
 16 17  1  0
 17 18  2  0
 18 19  1  0
 14 20  2  0
 20 21  1  0
 21  2  1  0
 10  5  1  0
 21 12  1  0
 19 15  1  0
  1 22  1  0
  1 23  1  0
  6 24  1  0
  7 25  1  0
  8 26  1  0
 10 27  1  0
 11 28  1  0
 16 29  1  0
 17 30  1  0
 18 31  1  0
M  END
>  <Original_Name>  (26) 
CHEMBL178589

>  <ROSHAMBO_ComboTanimoto>  (26) 
1.066

>  <ROSHAMBO_ShapeTanimoto>  (26) 
0.693

>  <ROSHAMBO_ColorTanimoto>  (26) 
0.373

>  <ROSHAMBO_FitTverskyCombo>  (26) 
1.48

>  <ROSHAMBO_FitTversky>  (26) 
0.883

>  <ROSHAMBO_FitColorTversky>  (26) 
0.597

>  <ROSHAMBO_RefTverskyCombo>  (26) 
1.261

>  <ROSHAMBO_RefTversky>  (26) 
0.763

>  <ROSHAMBO_RefColorTversky>  (26) 
0.498

>  <ROSHAMBO_Overlap>  (26) 
931.791

$$$$
CHEMBL85549_0_8
     RDKit          3D

 48 51  0  0  0  0  0  0  0  0999 V2000
    6.7088    1.3738   -0.7369 O   0  0  0  0  0  0  0  0  0  0  0  0
    5.5233    1.8428   -0.1445 C   0  0  0  0  0  0  0  0  0  0  0  0
    4.8188    0.6124    0.4028 C   0  0  1  0  0  0  0  0  0  0  0  0
    3.6333    0.9209    1.0166 O   0  0  0  0  0  0  0  0  0  0  0  0
    2.7952   -0.1573    0.9359 C   0  0  0  0  0  0  0  0  0  0  0  0
    1.4601    0.2961    0.6514 N   0  0  0  0  0  0  0  0  0  0  0  0
    1.0464    1.5657    0.6383 C   0  0  0  0  0  0  0  0  0  0  0  0
   -0.2697    1.5983    0.3307 N   0  0  0  0  0  0  0  0  0  0  0  0
   -0.6958    0.3428    0.1470 C   0  0  0  0  0  0  0  0  0  0  0  0
   -1.9445   -0.1409   -0.1789 C   0  0  0  0  0  0  0  0  0  0  0  0
   -3.0623    0.7165   -0.3853 N   0  0  0  0  0  0  0  0  0  0  0  0
   -4.3755    0.2118   -0.7274 C   0  0  0  0  0  0  0  0  0  0  0  0
   -4.8126   -0.6872    0.3825 C   0  0  0  0  0  0  0  0  0  0  0  0
   -6.2869   -0.8721    0.4927 C   0  0  0  0  0  0  0  0  0  0  0  0
   -6.8860    0.5149    0.6722 C   0  0  0  0  0  0  0  0  0  0  0  0
   -6.6820    1.2327   -0.6337 C   0  0  0  0  0  0  0  0  0  0  0  0
   -5.2645    1.3325   -1.0646 C   0  0  0  0  0  0  0  0  0  0  0  0
   -2.0549   -1.4846   -0.2940 N   0  0  0  0  0  0  0  0  0  0  0  0
   -0.9925   -2.2896   -0.0974 C   0  0  0  0  0  0  0  0  0  0  0  0
    0.2250   -1.8118    0.2208 N   0  0  0  0  0  0  0  0  0  0  0  0
    0.4014   -0.4656    0.3516 C   0  0  0  0  0  0  0  0  0  0  0  0
    3.2445   -1.0044   -0.2327 C   0  0  2  0  0  0  0  0  0  0  0  0
    3.5357   -2.2928    0.1435 O   0  0  0  0  0  0  0  0  0  0  0  0
    4.4448   -0.2642   -0.7743 C   0  0  2  0  0  0  0  0  0  0  0  0
    5.4897   -1.0907   -1.1164 O   0  0  0  0  0  0  0  0  0  0  0  0
    7.3529    1.1190   -0.0295 H   0  0  0  0  0  0  0  0  0  0  0  0
    5.7540    2.5458    0.6695 H   0  0  0  0  0  0  0  0  0  0  0  0
    4.8941    2.3808   -0.8689 H   0  0  0  0  0  0  0  0  0  0  0  0
    5.4979    0.1350    1.1246 H   0  0  0  0  0  0  0  0  0  0  0  0
    2.8142   -0.7200    1.8809 H   0  0  0  0  0  0  0  0  0  0  0  0
    1.6755    2.4441    0.8447 H   0  0  0  0  0  0  0  0  0  0  0  0
   -2.9319    1.7336   -0.2875 H   0  0  0  0  0  0  0  0  0  0  0  0
   -4.3870   -0.4062   -1.6373 H   0  0  0  0  0  0  0  0  0  0  0  0
   -4.3547   -1.6747    0.2236 H   0  0  0  0  0  0  0  0  0  0  0  0
   -4.4903   -0.2048    1.3171 H   0  0  0  0  0  0  0  0  0  0  0  0
   -6.6802   -1.3401   -0.4218 H   0  0  0  0  0  0  0  0  0  0  0  0
   -6.5427   -1.5276    1.3382 H   0  0  0  0  0  0  0  0  0  0  0  0
   -7.9590    0.4398    0.9025 H   0  0  0  0  0  0  0  0  0  0  0  0
   -6.4083    1.0531    1.5042 H   0  0  0  0  0  0  0  0  0  0  0  0
   -7.2412    0.6943   -1.4130 H   0  0  0  0  0  0  0  0  0  0  0  0
   -7.0377    2.2628   -0.4843 H   0  0  0  0  0  0  0  0  0  0  0  0
   -5.2590    1.4404   -2.1592 H   0  0  0  0  0  0  0  0  0  0  0  0
   -4.8603    2.1903   -0.5071 H   0  0  0  0  0  0  0  0  0  0  0  0
   -1.1249   -3.3767   -0.2007 H   0  0  0  0  0  0  0  0  0  0  0  0
    2.4603   -1.1285   -0.9940 H   0  0  0  0  0  0  0  0  0  0  0  0
    3.5493   -2.3529    1.1316 H   0  0  0  0  0  0  0  0  0  0  0  0
    4.2219    0.2744   -1.7071 H   0  0  0  0  0  0  0  0  0  0  0  0
    5.9225   -1.4331   -0.2944 H   0  0  0  0  0  0  0  0  0  0  0  0
  1  2  1  0
  2  3  1  0
  3  4  1  0
  4  5  1  0
  5  6  1  0
  6  7  1  0
  7  8  2  0
  8  9  1  0
  9 10  2  0
 10 11  1  0
 11 12  1  0
 12 13  1  0
 13 14  1  0
 14 15  1  0
 15 16  1  0
 16 17  1  0
 10 18  1  0
 18 19  2  0
 19 20  1  0
 20 21  2  0
  5 22  1  0
 22 23  1  0
 22 24  1  0
 24 25  1  0
 24  3  1  0
 21  6  1  0
 21  9  1  0
 17 12  1  0
  1 26  1  0
  2 27  1  0
  2 28  1  0
  3 29  1  1
  5 30  1  0
  7 31  1  0
 11 32  1  0
 12 33  1  0
 13 34  1  0
 13 35  1  0
 14 36  1  0
 14 37  1  0
 15 38  1  0
 15 39  1  0
 16 40  1  0
 16 41  1  0
 17 42  1  0
 17 43  1  0
 19 44  1  0
 22 45  1  6
 23 46  1  0
 24 47  1  6
 25 48  1  0
M  END
>  <Original_Name>  (27) 
CHEMBL85549

>  <ROSHAMBO_ComboTanimoto>  (27) 
1.058

>  <ROSHAMBO_ShapeTanimoto>  (27) 
0.773

>  <ROSHAMBO_ColorTanimoto>  (27) 
0.285

>  <ROSHAMBO_FitTverskyCombo>  (27) 
1.309

>  <ROSHAMBO_FitTversky>  (27) 
0.882

>  <ROSHAMBO_FitColorTversky>  (27) 
0.427

>  <ROSHAMBO_RefTverskyCombo>  (27) 
1.325

>  <ROSHAMBO_RefTversky>  (27) 
0.862

>  <ROSHAMBO_RefColorTversky>  (27) 
0.463

>  <ROSHAMBO_Overlap>  (27) 
1059.607

$$$$
CHEMBL68738_0_20
     RDKit          3D

 45 48  0  0  0  0  0  0  0  0999 V2000
   -6.5005    0.9555   -0.5546 O   0  0  0  0  0  0  0  0  0  0  0  0
   -5.1822    1.2081   -0.2094 C   0  0  0  0  0  0  0  0  0  0  0  0
   -4.2815    0.2147   -0.9054 C   0  0  1  0  0  0  0  0  0  0  0  0
   -2.9551    0.3992   -0.6137 O   0  0  0  0  0  0  0  0  0  0  0  0
   -2.5520   -0.5579    0.2838 C   0  0  2  0  0  0  0  0  0  0  0  0
   -1.1215   -0.8566    0.1611 N   0  0  0  0  0  0  0  0  0  0  0  0
   -0.5654   -2.0350   -0.1733 C   0  0  0  0  0  0  0  0  0  0  0  0
    0.7852   -1.8844   -0.1724 N   0  0  0  0  0  0  0  0  0  0  0  0
    1.1047   -0.6167    0.1603 C   0  0  0  0  0  0  0  0  0  0  0  0
    2.3110    0.0404    0.3021 C   0  0  0  0  0  0  0  0  0  0  0  0
    3.5482   -0.6191    0.0877 N   0  0  0  0  0  0  0  0  0  0  0  0
    4.7929    0.0569    0.2335 C   0  0  0  0  0  0  0  0  0  0  0  0
    5.9482   -0.8790   -0.0532 C   0  0  0  0  0  0  0  0  0  0  0  0
    7.1098    0.1056   -0.1647 C   0  0  0  0  0  0  0  0  0  0  0  0
    6.5077    1.3724   -0.7012 C   0  0  0  0  0  0  0  0  0  0  0  0
    5.0181    1.1344   -0.8173 C   0  0  0  0  0  0  0  0  0  0  0  0
    2.2484    1.3395    0.6545 N   0  0  0  0  0  0  0  0  0  0  0  0
    1.0766    1.9840    0.8629 C   0  0  0  0  0  0  0  0  0  0  0  0
   -0.0777    1.3196    0.7176 N   0  0  0  0  0  0  0  0  0  0  0  0
   -0.1090    0.0121    0.3657 C   0  0  0  0  0  0  0  0  0  0  0  0
   -3.3311   -1.7868   -0.1339 C   0  0  1  0  0  0  0  0  0  0  0  0
   -3.4371   -2.7308    0.8572 O   0  0  0  0  0  0  0  0  0  0  0  0
   -4.6687   -1.1802   -0.5137 C   0  0  1  0  0  0  0  0  0  0  0  0
   -5.5350   -1.2110    0.5877 O   0  0  0  0  0  0  0  0  0  0  0  0
   -7.0427    0.8516    0.2672 H   0  0  0  0  0  0  0  0  0  0  0  0
   -4.9110    2.2284   -0.5184 H   0  0  0  0  0  0  0  0  0  0  0  0
   -5.0628    1.1115    0.8798 H   0  0  0  0  0  0  0  0  0  0  0  0
   -4.4125    0.3741   -1.9859 H   0  0  0  0  0  0  0  0  0  0  0  0
   -2.7230   -0.2325    1.3205 H   0  0  0  0  0  0  0  0  0  0  0  0
   -1.1103   -2.9614   -0.4073 H   0  0  0  0  0  0  0  0  0  0  0  0
    3.5462   -1.6135   -0.1807 H   0  0  0  0  0  0  0  0  0  0  0  0
    4.7545    0.4578    1.2571 H   0  0  0  0  0  0  0  0  0  0  0  0
    6.1025   -1.5923    0.7699 H   0  0  0  0  0  0  0  0  0  0  0  0
    5.8063   -1.5110   -0.9423 H   0  0  0  0  0  0  0  0  0  0  0  0
    7.5611    0.2820    0.8229 H   0  0  0  0  0  0  0  0  0  0  0  0
    7.9089   -0.2762   -0.8170 H   0  0  0  0  0  0  0  0  0  0  0  0
    6.7052    2.2068   -0.0122 H   0  0  0  0  0  0  0  0  0  0  0  0
    6.9426    1.6331   -1.6774 H   0  0  0  0  0  0  0  0  0  0  0  0
    4.4475    2.0458   -0.5853 H   0  0  0  0  0  0  0  0  0  0  0  0
    4.6899    0.8476   -1.8273 H   0  0  0  0  0  0  0  0  0  0  0  0
    1.0720    3.0459    1.1496 H   0  0  0  0  0  0  0  0  0  0  0  0
   -2.8497   -2.3546   -0.9437 H   0  0  0  0  0  0  0  0  0  0  0  0
   -3.3874   -2.2881    1.7413 H   0  0  0  0  0  0  0  0  0  0  0  0
   -5.2084   -1.7059   -1.3152 H   0  0  0  0  0  0  0  0  0  0  0  0
   -5.0060   -1.1922    1.4243 H   0  0  0  0  0  0  0  0  0  0  0  0
  1  2  1  0
  2  3  1  0
  3  4  1  0
  4  5  1  0
  5  6  1  0
  6  7  1  0
  7  8  2  0
  8  9  1  0
  9 10  2  0
 10 11  1  0
 11 12  1  0
 12 13  1  0
 13 14  1  0
 14 15  1  0
 15 16  1  0
 10 17  1  0
 17 18  2  0
 18 19  1  0
 19 20  2  0
  5 21  1  0
 21 22  1  0
 21 23  1  0
 23 24  1  0
 23  3  1  0
 20  6  1  0
 20  9  1  0
 16 12  1  0
  1 25  1  0
  2 26  1  0
  2 27  1  0
  3 28  1  6
  5 29  1  1
  7 30  1  0
 11 31  1  0
 12 32  1  0
 13 33  1  0
 13 34  1  0
 14 35  1  0
 14 36  1  0
 15 37  1  0
 15 38  1  0
 16 39  1  0
 16 40  1  0
 18 41  1  0
 21 42  1  6
 22 43  1  0
 23 44  1  6
 24 45  1  0
M  END
>  <Original_Name>  (28) 
CHEMBL68738

>  <ROSHAMBO_ComboTanimoto>  (28) 
1.052

>  <ROSHAMBO_ShapeTanimoto>  (28) 
0.799

>  <ROSHAMBO_ColorTanimoto>  (28) 
0.254

>  <ROSHAMBO_FitTverskyCombo>  (28) 
1.302

>  <ROSHAMBO_FitTversky>  (28) 
0.914

>  <ROSHAMBO_FitColorTversky>  (28) 
0.389

>  <ROSHAMBO_RefTverskyCombo>  (28) 
1.286

>  <ROSHAMBO_RefTversky>  (28) 
0.864

>  <ROSHAMBO_RefColorTversky>  (28) 
0.422

>  <ROSHAMBO_Overlap>  (28) 
1059.61

$$$$
CHEMBL177330_0_68
     RDKit          3D

 31 34  0  0  0  0  0  0  0  0999 V2000
    0.2119   -3.5422    0.5018 N   0  0  0  0  0  0  0  0  0  0  0  0
   -0.1858   -2.1973    0.2836 C   0  0  0  0  0  0  0  0  0  0  0  0
   -1.4785   -1.8851    0.1699 N   0  0  0  0  0  0  0  0  0  0  0  0
   -1.8853   -0.5984   -0.0402 C   0  0  0  0  0  0  0  0  0  0  0  0
   -3.3145   -0.3332   -0.1542 C   0  0  0  0  0  0  0  0  0  0  0  0
   -3.8177    0.9234   -0.3650 C   0  0  0  0  0  0  0  0  0  0  0  0
   -5.1799    1.1697   -0.4727 C   0  0  0  0  0  0  0  0  0  0  0  0
   -6.0553    0.1242   -0.3652 C   0  0  0  0  0  0  0  0  0  0  0  0
   -5.5299   -1.1373   -0.1525 C   0  0  0  0  0  0  0  0  0  0  0  0
   -4.1979   -1.3407   -0.0527 N   0  0  0  0  0  0  0  0  0  0  0  0
   -0.9360    0.3683   -0.1323 C   0  0  0  0  0  0  0  0  0  0  0  0
    0.4165    0.0541   -0.0151 C   0  0  0  0  0  0  0  0  0  0  0  0
    1.5284    0.8005   -0.0663 N   0  0  0  0  0  0  0  0  0  0  0  0
    2.5703   -0.0504    0.1133 C   0  0  0  0  0  0  0  0  0  0  0  0
    3.9814    0.3035    0.1355 C   0  0  0  0  0  0  0  0  0  0  0  0
    5.0156   -0.5983    0.0390 C   0  0  0  0  0  0  0  0  0  0  0  0
    6.2021    0.1007    0.0966 C   0  0  0  0  0  0  0  0  0  0  0  0
    5.8259    1.4292    0.2289 C   0  0  0  0  0  0  0  0  0  0  0  0
    4.5163    1.4803    0.2451 O   0  0  0  0  0  0  0  0  0  0  0  0
    2.0417   -1.2794    0.2659 N   0  0  0  0  0  0  0  0  0  0  0  0
    0.7371   -1.2212    0.1888 N   0  0  0  0  0  0  0  0  0  0  0  0
    1.2113   -3.7761    0.5886 H   0  0  0  0  0  0  0  0  0  0  0  0
   -0.4988   -4.2843    0.5734 H   0  0  0  0  0  0  0  0  0  0  0  0
   -3.1176    1.7674   -0.4521 H   0  0  0  0  0  0  0  0  0  0  0  0
   -5.5501    2.1916   -0.6421 H   0  0  0  0  0  0  0  0  0  0  0  0
   -7.1410    0.2815   -0.4453 H   0  0  0  0  0  0  0  0  0  0  0  0
   -6.2124   -1.9952   -0.0625 H   0  0  0  0  0  0  0  0  0  0  0  0
   -1.2384    1.4123   -0.3013 H   0  0  0  0  0  0  0  0  0  0  0  0
    4.9135   -1.6885   -0.0660 H   0  0  0  0  0  0  0  0  0  0  0  0
    7.2232   -0.3057    0.0484 H   0  0  0  0  0  0  0  0  0  0  0  0
    6.5073    2.2893    0.3065 H   0  0  0  0  0  0  0  0  0  0  0  0
  1  2  1  0
  2  3  2  0
  3  4  1  0
  4  5  1  0
  5  6  2  0
  6  7  1  0
  7  8  2  0
  8  9  1  0
  9 10  2  0
  4 11  2  0
 11 12  1  0
 12 13  2  0
 13 14  1  0
 14 15  1  0
 15 16  2  0
 16 17  1  0
 17 18  2  0
 18 19  1  0
 14 20  2  0
 20 21  1  0
 21  2  1  0
 10  5  1  0
 21 12  1  0
 19 15  1  0
  1 22  1  0
  1 23  1  0
  6 24  1  0
  7 25  1  0
  8 26  1  0
  9 27  1  0
 11 28  1  0
 16 29  1  0
 17 30  1  0
 18 31  1  0
M  END
>  <Original_Name>  (29) 
CHEMBL177330

>  <ROSHAMBO_ComboTanimoto>  (29) 
1.051

>  <ROSHAMBO_ShapeTanimoto>  (29) 
0.725

>  <ROSHAMBO_ColorTanimoto>  (29) 
0.326

>  <ROSHAMBO_FitTverskyCombo>  (29) 
1.444

>  <ROSHAMBO_FitTversky>  (29) 
0.905

>  <ROSHAMBO_FitColorTversky>  (29) 
0.539

>  <ROSHAMBO_RefTverskyCombo>  (29) 
1.237

>  <ROSHAMBO_RefTversky>  (29) 
0.785

>  <ROSHAMBO_RefColorTversky>  (29) 
0.452

>  <ROSHAMBO_Overlap>  (29) 
958.757

$$$$
CHEMBL571672_0_12
     RDKit          3D

 35 37  0  0  0  0  0  0  0  0999 V2000
    1.1854    3.4346    0.1024 N   0  0  0  0  0  0  0  0  0  0  0  0
    1.4329    2.0377    0.0668 C   0  0  0  0  0  0  0  0  0  0  0  0
    0.4236    1.1498    0.0569 N   0  0  0  0  0  0  0  0  0  0  0  0
    0.6099   -0.1794    0.0236 C   0  0  0  0  0  0  0  0  0  0  0  0
   -0.5373   -1.0607    0.0153 C   0  0  0  0  0  0  0  0  0  0  0  0
   -0.3497   -2.3046   -0.0161 O   0  0  0  0  0  0  0  0  0  0  0  0
   -1.8531   -0.5305    0.0421 N   0  0  0  0  0  0  0  0  0  0  0  0
   -3.0269   -1.3973    0.0345 C   0  0  0  0  0  0  0  0  0  0  0  0
   -4.2744   -0.6315    0.0666 C   0  0  0  0  0  0  0  0  0  0  0  0
   -4.8351   -0.2661   -1.1548 C   0  0  0  0  0  0  0  0  0  0  0  0
   -6.0082    0.4559   -1.2349 C   0  0  0  0  0  0  0  0  0  0  0  0
   -6.6274    0.8161   -0.0581 C   0  0  0  0  0  0  0  0  0  0  0  0
   -6.0670    0.4518    1.1167 N   0  0  0  0  0  0  0  0  0  0  0  0
   -4.9290   -0.2488    1.2057 C   0  0  0  0  0  0  0  0  0  0  0  0
    1.9151   -0.6226   -0.0010 C   0  0  0  0  0  0  0  0  0  0  0  0
    2.9790    0.2548    0.0081 C   0  0  0  0  0  0  0  0  0  0  0  0
    4.3640   -0.2009   -0.0176 C   0  0  0  0  0  0  0  0  0  0  0  0
    4.7976   -1.5233   -0.0534 C   0  0  0  0  0  0  0  0  0  0  0  0
    6.1743   -1.5054   -0.0679 C   0  0  0  0  0  0  0  0  0  0  0  0
    6.5347   -0.1770   -0.0406 C   0  0  0  0  0  0  0  0  0  0  0  0
    5.4462    0.5329   -0.0122 O   0  0  0  0  0  0  0  0  0  0  0  0
    2.6955    1.5567    0.0418 N   0  0  0  0  0  0  0  0  0  0  0  0
    1.9739    4.0973    0.1094 H   0  0  0  0  0  0  0  0  0  0  0  0
    0.2173    3.7857    0.1212 H   0  0  0  0  0  0  0  0  0  0  0  0
   -1.9829    0.4910    0.0677 H   0  0  0  0  0  0  0  0  0  0  0  0
   -3.0098   -2.0102   -0.8788 H   0  0  0  0  0  0  0  0  0  0  0  0
   -2.9908   -2.0261    0.9363 H   0  0  0  0  0  0  0  0  0  0  0  0
   -4.3271   -0.5623   -2.0844 H   0  0  0  0  0  0  0  0  0  0  0  0
   -6.4361    0.7354   -2.2089 H   0  0  0  0  0  0  0  0  0  0  0  0
   -7.5645    1.3920   -0.0743 H   0  0  0  0  0  0  0  0  0  0  0  0
   -4.5217   -0.5159    2.1920 H   0  0  0  0  0  0  0  0  0  0  0  0
    2.1131   -1.7042   -0.0286 H   0  0  0  0  0  0  0  0  0  0  0  0
    4.1579   -2.4180   -0.0674 H   0  0  0  0  0  0  0  0  0  0  0  0
    6.8481   -2.3744   -0.0956 H   0  0  0  0  0  0  0  0  0  0  0  0
    7.5626    0.2146   -0.0426 H   0  0  0  0  0  0  0  0  0  0  0  0
  1  2  1  0
  2  3  2  0
  3  4  1  0
  4  5  1  0
  5  6  2  0
  5  7  1  0
  7  8  1  0
  8  9  1  0
  9 10  2  0
 10 11  1  0
 11 12  2  0
 12 13  1  0
 13 14  2  0
  4 15  2  0
 15 16  1  0
 16 17  1  0
 17 18  2  0
 18 19  1  0
 19 20  2  0
 20 21  1  0
 16 22  2  0
 22  2  1  0
 14  9  1  0
 21 17  1  0
  1 23  1  0
  1 24  1  0
  7 25  1  0
  8 26  1  0
  8 27  1  0
 10 28  1  0
 11 29  1  0
 12 30  1  0
 14 31  1  0
 15 32  1  0
 18 33  1  0
 19 34  1  0
 20 35  1  0
M  END
>  <Original_Name>  (30) 
CHEMBL571672

>  <ROSHAMBO_ComboTanimoto>  (30) 
1.028

>  <ROSHAMBO_ShapeTanimoto>  (30) 
0.72

>  <ROSHAMBO_ColorTanimoto>  (30) 
0.308

>  <ROSHAMBO_FitTverskyCombo>  (30) 
1.446

>  <ROSHAMBO_FitTversky>  (30) 
0.902

>  <ROSHAMBO_FitColorTversky>  (30) 
0.544

>  <ROSHAMBO_RefTverskyCombo>  (30) 
1.196

>  <ROSHAMBO_RefTversky>  (30) 
0.781

>  <ROSHAMBO_RefColorTversky>  (30) 
0.415

>  <ROSHAMBO_Overlap>  (30) 
953.916

$$$$
CHEMBL558291_0_30
     RDKit          3D

 33 35  0  0  0  0  0  0  0  0999 V2000
    0.6718    3.3785    0.6456 N   0  0  0  0  0  0  0  0  0  0  0  0
    1.0661    2.0295    0.4318 C   0  0  0  0  0  0  0  0  0  0  0  0
    0.0891    1.1294    0.2464 N   0  0  0  0  0  0  0  0  0  0  0  0
    0.3205   -0.1753    0.0344 C   0  0  0  0  0  0  0  0  0  0  0  0
   -0.7924   -1.0966   -0.1592 C   0  0  0  0  0  0  0  0  0  0  0  0
   -0.6099   -2.3213   -0.3594 O   0  0  0  0  0  0  0  0  0  0  0  0
   -2.1253   -0.6086   -0.1228 N   0  0  0  0  0  0  0  0  0  0  0  0
   -3.2842   -1.4205   -0.2995 C   0  0  0  0  0  0  0  0  0  0  0  0
   -4.4968   -0.5884   -0.2010 C   0  0  0  0  0  0  0  0  0  0  0  0
   -5.2489   -0.2768    0.9090 C   0  0  0  0  0  0  0  0  0  0  0  0
   -6.2841    0.5314    0.4912 C   0  0  0  0  0  0  0  0  0  0  0  0
   -6.1200    0.6804   -0.8640 C   0  0  0  0  0  0  0  0  0  0  0  0
   -5.0568    0.0033   -1.2196 O   0  0  0  0  0  0  0  0  0  0  0  0
    1.6346   -0.5825    0.0109 C   0  0  0  0  0  0  0  0  0  0  0  0
    2.6659    0.3118    0.1971 C   0  0  0  0  0  0  0  0  0  0  0  0
    4.0707   -0.1243    0.1719 C   0  0  0  0  0  0  0  0  0  0  0  0
    4.4626   -1.4240   -0.0337 C   0  0  0  0  0  0  0  0  0  0  0  0
    5.8373   -1.4470    0.0097 C   0  0  0  0  0  0  0  0  0  0  0  0
    6.2198   -0.1347    0.2441 C   0  0  0  0  0  0  0  0  0  0  0  0
    5.1395    0.5960    0.3301 O   0  0  0  0  0  0  0  0  0  0  0  0
    2.3346    1.6045    0.4037 N   0  0  0  0  0  0  0  0  0  0  0  0
    1.3855    4.1065    0.7929 H   0  0  0  0  0  0  0  0  0  0  0  0
   -0.3275    3.6280    0.6533 H   0  0  0  0  0  0  0  0  0  0  0  0
   -2.2643    0.3985    0.0422 H   0  0  0  0  0  0  0  0  0  0  0  0
   -3.2482   -1.8975   -1.2901 H   0  0  0  0  0  0  0  0  0  0  0  0
   -3.3092   -2.1928    0.4833 H   0  0  0  0  0  0  0  0  0  0  0  0
   -5.0588   -0.6112    1.9395 H   0  0  0  0  0  0  0  0  0  0  0  0
   -7.0783    0.9674    1.1150 H   0  0  0  0  0  0  0  0  0  0  0  0
   -6.7677    1.2657   -1.5333 H   0  0  0  0  0  0  0  0  0  0  0  0
    1.8666   -1.6441   -0.1601 H   0  0  0  0  0  0  0  0  0  0  0  0
    3.8007   -2.2863   -0.2019 H   0  0  0  0  0  0  0  0  0  0  0  0
    6.4938   -2.3208   -0.1151 H   0  0  0  0  0  0  0  0  0  0  0  0
    7.2537    0.2284    0.3409 H   0  0  0  0  0  0  0  0  0  0  0  0
  1  2  1  0
  2  3  2  0
  3  4  1  0
  4  5  1  0
  5  6  2  0
  5  7  1  0
  7  8  1  0
  8  9  1  0
  9 10  2  0
 10 11  1  0
 11 12  2  0
 12 13  1  0
  4 14  2  0
 14 15  1  0
 15 16  1  0
 16 17  2  0
 17 18  1  0
 18 19  2  0
 19 20  1  0
 15 21  2  0
 21  2  1  0
 13  9  1  0
 20 16  1  0
  1 22  1  0
  1 23  1  0
  7 24  1  0
  8 25  1  0
  8 26  1  0
 10 27  1  0
 11 28  1  0
 12 29  1  0
 14 30  1  0
 17 31  1  0
 18 32  1  0
 19 33  1  0
M  END
>  <Original_Name>  (31) 
CHEMBL558291

>  <ROSHAMBO_ComboTanimoto>  (31) 
1.027

>  <ROSHAMBO_ShapeTanimoto>  (31) 
0.718

>  <ROSHAMBO_ColorTanimoto>  (31) 
0.309

>  <ROSHAMBO_FitTverskyCombo>  (31) 
1.462

>  <ROSHAMBO_FitTversky>  (31) 
0.917

>  <ROSHAMBO_FitColorTversky>  (31) 
0.545

>  <ROSHAMBO_RefTverskyCombo>  (31) 
1.184

>  <ROSHAMBO_RefTversky>  (31) 
0.768

>  <ROSHAMBO_RefColorTversky>  (31) 
0.416

>  <ROSHAMBO_Overlap>  (31) 
936.878

$$$$
CHEMBL300624_0_23
     RDKit          3D

 40 42  0  0  0  0  0  0  0  0999 V2000
    1.6602    1.9785   -0.0981 C   0  0  0  0  0  0  0  0  0  0  0  0
    1.6887    0.5473    0.0032 N   0  0  0  0  0  0  0  0  0  0  0  0
    0.5880   -0.2386    0.0211 C   0  0  0  0  0  0  0  0  0  0  0  0
   -0.7337    0.0003   -0.0404 N   0  0  0  0  0  0  0  0  0  0  0  0
   -1.6472   -0.9855   -0.0022 C   0  0  0  0  0  0  0  0  0  0  0  0
   -3.0339   -0.6201   -0.0748 C   0  0  0  0  0  0  0  0  0  0  0  0
   -4.2198   -0.3231   -0.1340 C   0  0  0  0  0  0  0  0  0  0  0  0
   -5.6257    0.0088   -0.1879 C   0  0  0  0  0  0  0  0  0  0  0  0
   -6.1467    0.1579    1.2133 C   0  0  0  0  0  0  0  0  0  0  0  0
   -6.4356   -1.0737   -0.9030 C   0  0  0  0  0  0  0  0  0  0  0  0
   -5.8481    1.2132   -0.8499 O   0  0  0  0  0  0  0  0  0  0  0  0
   -1.2365   -2.2600    0.1010 N   0  0  0  0  0  0  0  0  0  0  0  0
    0.0712   -2.5561    0.1661 C   0  0  0  0  0  0  0  0  0  0  0  0
    0.5458   -3.8874    0.2755 N   0  0  0  0  0  0  0  0  0  0  0  0
    1.0050   -1.5393    0.1264 C   0  0  0  0  0  0  0  0  0  0  0  0
    2.3498   -1.4843    0.1681 N   0  0  0  0  0  0  0  0  0  0  0  0
    2.7953   -0.2174    0.0943 C   0  0  0  0  0  0  0  0  0  0  0  0
    4.1983    0.1863    0.1135 C   0  0  0  0  0  0  0  0  0  0  0  0
    5.1416   -0.5422   -0.5870 C   0  0  0  0  0  0  0  0  0  0  0  0
    6.4829   -0.1883   -0.5915 C   0  0  0  0  0  0  0  0  0  0  0  0
    6.9145    0.9159    0.1137 C   0  0  0  0  0  0  0  0  0  0  0  0
    5.9974    1.6571    0.8182 C   0  0  0  0  0  0  0  0  0  0  0  0
    6.4090    2.7466    1.5167 F   0  0  0  0  0  0  0  0  0  0  0  0
    4.6566    1.2858    0.8102 C   0  0  0  0  0  0  0  0  0  0  0  0
    1.6515    2.4174    0.9105 H   0  0  0  0  0  0  0  0  0  0  0  0
    2.5516    2.3255   -0.6412 H   0  0  0  0  0  0  0  0  0  0  0  0
    0.7557    2.2897   -0.6412 H   0  0  0  0  0  0  0  0  0  0  0  0
   -5.3440   -0.0719    1.9294 H   0  0  0  0  0  0  0  0  0  0  0  0
   -6.4917    1.1909    1.3682 H   0  0  0  0  0  0  0  0  0  0  0  0
   -6.9860   -0.5361    1.3682 H   0  0  0  0  0  0  0  0  0  0  0  0
   -6.9203   -1.7215   -0.1578 H   0  0  0  0  0  0  0  0  0  0  0  0
   -7.2037   -0.6010   -1.5329 H   0  0  0  0  0  0  0  0  0  0  0  0
   -5.7654   -1.6772   -1.5329 H   0  0  0  0  0  0  0  0  0  0  0  0
   -5.9814    1.9351   -0.1856 H   0  0  0  0  0  0  0  0  0  0  0  0
    1.5582   -4.0709    0.3227 H   0  0  0  0  0  0  0  0  0  0  0  0
   -0.1218   -4.6711    0.3078 H   0  0  0  0  0  0  0  0  0  0  0  0
    4.8198   -1.4267   -1.1564 H   0  0  0  0  0  0  0  0  0  0  0  0
    7.2060   -0.7914   -1.1602 H   0  0  0  0  0  0  0  0  0  0  0  0
    7.9775    1.1987    0.1118 H   0  0  0  0  0  0  0  0  0  0  0  0
    3.9357    1.8907    1.3799 H   0  0  0  0  0  0  0  0  0  0  0  0
  1  2  1  0
  2  3  1  0
  3  4  2  0
  4  5  1  0
  5  6  1  0
  6  7  3  0
  7  8  1  0
  8  9  1  0
  8 10  1  0
  8 11  1  0
  5 12  2  0
 12 13  1  0
 13 14  1  0
 13 15  2  0
 15 16  1  0
 16 17  2  0
 17 18  1  0
 18 19  2  0
 19 20  1  0
 20 21  2  0
 21 22  1  0
 22 23  1  0
 22 24  2  0
 17  2  1  0
 24 18  1  0
 15  3  1  0
  1 25  1  0
  1 26  1  0
  1 27  1  0
  9 28  1  0
  9 29  1  0
  9 30  1  0
 10 31  1  0
 10 32  1  0
 10 33  1  0
 11 34  1  0
 14 35  1  0
 14 36  1  0
 19 37  1  0
 20 38  1  0
 21 39  1  0
 24 40  1  0
M  END
>  <Original_Name>  (32) 
CHEMBL300624

>  <ROSHAMBO_ComboTanimoto>  (32) 
1.018

>  <ROSHAMBO_ShapeTanimoto>  (32) 
0.758

>  <ROSHAMBO_ColorTanimoto>  (32) 
0.26

>  <ROSHAMBO_FitTverskyCombo>  (32) 
1.343

>  <ROSHAMBO_FitTversky>  (32) 
0.892

>  <ROSHAMBO_FitColorTversky>  (32) 
0.451

>  <ROSHAMBO_RefTverskyCombo>  (32) 
1.215

>  <ROSHAMBO_RefTversky>  (32) 
0.834

>  <ROSHAMBO_RefColorTversky>  (32) 
0.381

>  <ROSHAMBO_Overlap>  (32) 
1023.115

$$$$
CHEMBL564473_0_10
     RDKit          3D

 42 44  0  0  0  0  0  0  0  0999 V2000
   -7.9484   -0.3188    0.1871 C   0  0  0  0  0  0  0  0  0  0  0  0
   -7.3399    0.9224    0.2392 O   0  0  0  0  0  0  0  0  0  0  0  0
   -6.1022    0.9177    0.8452 C   0  0  0  0  0  0  0  0  0  0  0  0
   -5.1212    0.0915    0.0957 C   0  0  0  0  0  0  0  0  0  0  0  0
   -5.3531   -0.1502   -1.2396 C   0  0  0  0  0  0  0  0  0  0  0  0
   -4.4455   -0.9070   -1.9794 C   0  0  0  0  0  0  0  0  0  0  0  0
   -3.3454   -1.3828   -1.3327 C   0  0  0  0  0  0  0  0  0  0  0  0
   -3.1417   -1.1244    0.0006 C   0  0  0  0  0  0  0  0  0  0  0  0
   -1.9008   -1.6764    0.6344 C   0  0  0  0  0  0  0  0  0  0  0  0
   -0.8675   -0.6446    0.4549 N   0  0  0  0  0  0  0  0  0  0  0  0
    0.4949   -1.0418    0.3719 C   0  0  0  0  0  0  0  0  0  0  0  0
    0.7771   -2.2565    0.4612 O   0  0  0  0  0  0  0  0  0  0  0  0
    1.5667   -0.0445    0.1846 C   0  0  0  0  0  0  0  0  0  0  0  0
    2.8766   -0.4508    0.1855 C   0  0  0  0  0  0  0  0  0  0  0  0
    3.8657    0.5062    0.0270 C   0  0  0  0  0  0  0  0  0  0  0  0
    5.2843    0.1193    0.0385 C   0  0  0  0  0  0  0  0  0  0  0  0
    5.8207   -1.1342    0.2273 C   0  0  0  0  0  0  0  0  0  0  0  0
    7.1996   -1.0426    0.1627 C   0  0  0  0  0  0  0  0  0  0  0  0
    7.4285    0.3030   -0.0684 C   0  0  0  0  0  0  0  0  0  0  0  0
    6.2697    0.9531   -0.1346 O   0  0  0  0  0  0  0  0  0  0  0  0
    3.5067    1.7883   -0.1226 N   0  0  0  0  0  0  0  0  0  0  0  0
    2.2318    2.1861   -0.1238 C   0  0  0  0  0  0  0  0  0  0  0  0
    1.9148    3.5652   -0.2853 N   0  0  0  0  0  0  0  0  0  0  0  0
    1.2501    1.2681    0.0304 N   0  0  0  0  0  0  0  0  0  0  0  0
   -4.0150   -0.3965    0.7150 N   0  0  0  0  0  0  0  0  0  0  0  0
   -8.1269   -0.6829    1.2097 H   0  0  0  0  0  0  0  0  0  0  0  0
   -8.9076   -0.2349   -0.3448 H   0  0  0  0  0  0  0  0  0  0  0  0
   -7.2947   -1.0257   -0.3448 H   0  0  0  0  0  0  0  0  0  0  0  0
   -5.7290    1.9510    0.8994 H   0  0  0  0  0  0  0  0  0  0  0  0
   -6.2162    0.4838    1.8495 H   0  0  0  0  0  0  0  0  0  0  0  0
   -6.2549    0.2539   -1.7229 H   0  0  0  0  0  0  0  0  0  0  0  0
   -4.6119   -1.1123   -3.0472 H   0  0  0  0  0  0  0  0  0  0  0  0
   -2.6090   -1.9834   -1.8868 H   0  0  0  0  0  0  0  0  0  0  0  0
   -2.0696   -1.8678    1.7044 H   0  0  0  0  0  0  0  0  0  0  0  0
   -1.6032   -2.6319    0.1779 H   0  0  0  0  0  0  0  0  0  0  0  0
   -1.1272    0.3500    0.3904 H   0  0  0  0  0  0  0  0  0  0  0  0
    3.1360   -1.5126    0.3092 H   0  0  0  0  0  0  0  0  0  0  0  0
    5.2474   -2.0568    0.4010 H   0  0  0  0  0  0  0  0  0  0  0  0
    7.9399   -1.8491    0.2698 H   0  0  0  0  0  0  0  0  0  0  0  0
    8.4202    0.7656   -0.1805 H   0  0  0  0  0  0  0  0  0  0  0  0
    0.9312    3.8709   -0.2861 H   0  0  0  0  0  0  0  0  0  0  0  0
    2.6691    4.2569   -0.4012 H   0  0  0  0  0  0  0  0  0  0  0  0
  1  2  1  0
  2  3  1  0
  3  4  1  0
  4  5  2  0
  5  6  1  0
  6  7  2  0
  7  8  1  0
  8  9  1  0
  9 10  1  0
 10 11  1  0
 11 12  2  0
 11 13  1  0
 13 14  2  0
 14 15  1  0
 15 16  1  0
 16 17  2  0
 17 18  1  0
 18 19  2  0
 19 20  1  0
 15 21  2  0
 21 22  1  0
 22 23  1  0
 22 24  2  0
  8 25  2  0
 25  4  1  0
 24 13  1  0
 20 16  1  0
  1 26  1  0
  1 27  1  0
  1 28  1  0
  3 29  1  0
  3 30  1  0
  5 31  1  0
  6 32  1  0
  7 33  1  0
  9 34  1  0
  9 35  1  0
 10 36  1  0
 14 37  1  0
 17 38  1  0
 18 39  1  0
 19 40  1  0
 23 41  1  0
 23 42  1  0
M  END
>  <Original_Name>  (33) 
CHEMBL564473

>  <ROSHAMBO_ComboTanimoto>  (33) 
1.015

>  <ROSHAMBO_ShapeTanimoto>  (33) 
0.728

>  <ROSHAMBO_ColorTanimoto>  (33) 
0.287

>  <ROSHAMBO_FitTverskyCombo>  (33) 
1.355

>  <ROSHAMBO_FitTversky>  (33) 
0.858

>  <ROSHAMBO_FitColorTversky>  (33) 
0.497

>  <ROSHAMBO_RefTverskyCombo>  (33) 
1.232

>  <ROSHAMBO_RefTversky>  (33) 
0.827

>  <ROSHAMBO_RefColorTversky>  (33) 
0.405

>  <ROSHAMBO_Overlap>  (33) 
1015.794

$$$$
CHEMBL165760_1_47
     RDKit          3D

 41 43  0  0  0  0  0  0  0  0999 V2000
    6.4865    0.0985   -0.4369 C   0  0  0  0  0  0  0  0  0  0  0  0
    5.3146   -0.6822   -0.3449 O   0  0  0  0  0  0  0  0  0  0  0  0
    4.1002   -0.0295   -0.1576 C   0  0  0  0  0  0  0  0  0  0  0  0
    4.0612    1.3447   -0.0664 C   0  0  0  0  0  0  0  0  0  0  0  0
    2.8786    2.0268    0.1189 C   0  0  0  0  0  0  0  0  0  0  0  0
    1.7127    1.2989    0.2134 C   0  0  0  0  0  0  0  0  0  0  0  0
    1.7151   -0.0736    0.1267 C   0  0  0  0  0  0  0  0  0  0  0  0
    0.4654   -0.8378    0.2291 C   0  0  0  0  0  0  0  0  0  0  0  0
    0.1382   -1.6296    1.2569 N   0  0  0  0  0  0  0  0  0  0  0  0
   -1.0684   -2.1678    1.0181 N   0  0  0  0  0  0  0  0  0  0  0  0
   -1.5147   -1.7190   -0.1664 C   0  0  0  0  0  0  0  0  0  0  0  0
   -2.7733   -2.0324   -0.8349 C   0  0  0  0  0  0  0  0  0  0  0  0
   -3.8771   -1.0941   -0.4741 C   0  0  0  0  0  0  0  0  0  0  0  0
   -4.7209   -1.3256    0.5929 C   0  0  0  0  0  0  0  0  0  0  0  0
   -5.7423   -0.4323    0.9060 C   0  0  0  0  0  0  0  0  0  0  0  0
   -5.9467    0.7104    0.1648 C   0  0  0  0  0  0  0  0  0  0  0  0
   -7.0372    1.6651    0.4983 C   0  0  0  0  0  0  0  0  0  0  0  0
   -5.1152    0.9517   -0.8977 C   0  0  0  0  0  0  0  0  0  0  0  0
   -5.3358    2.1901   -1.7020 C   0  0  0  0  0  0  0  0  0  0  0  0
   -4.1000    0.0575   -1.2037 C   0  0  0  0  0  0  0  0  0  0  0  0
   -0.5593   -0.9025   -0.6375 N   0  0  0  0  0  0  0  0  0  0  0  0
    2.9098   -0.7209   -0.0578 C   0  0  0  0  0  0  0  0  0  0  0  0
    6.8472    0.3388    0.5741 H   0  0  0  0  0  0  0  0  0  0  0  0
    7.2608   -0.4648   -0.9782 H   0  0  0  0  0  0  0  0  0  0  0  0
    6.2649    1.0301   -0.9782 H   0  0  0  0  0  0  0  0  0  0  0  0
    4.9999    1.9128   -0.1437 H   0  0  0  0  0  0  0  0  0  0  0  0
    2.8656    3.1244    0.1895 H   0  0  0  0  0  0  0  0  0  0  0  0
    0.7592    1.8270    0.3615 H   0  0  0  0  0  0  0  0  0  0  0  0
   -1.5692   -2.8178    1.6406 H   0  0  0  0  0  0  0  0  0  0  0  0
   -2.6139   -1.9839   -1.9222 H   0  0  0  0  0  0  0  0  0  0  0  0
   -3.0771   -3.0378   -0.5080 H   0  0  0  0  0  0  0  0  0  0  0  0
   -4.5847   -2.2291    1.2053 H   0  0  0  0  0  0  0  0  0  0  0  0
   -6.3992   -0.6436    1.7627 H   0  0  0  0  0  0  0  0  0  0  0  0
   -7.1311    1.7473    1.5912 H   0  0  0  0  0  0  0  0  0  0  0  0
   -6.8020    2.6528    0.0752 H   0  0  0  0  0  0  0  0  0  0  0  0
   -7.9852    1.3013    0.0752 H   0  0  0  0  0  0  0  0  0  0  0  0
   -5.4879    3.0443   -1.0258 H   0  0  0  0  0  0  0  0  0  0  0  0
   -4.4568    2.3767   -2.3364 H   0  0  0  0  0  0  0  0  0  0  0  0
   -6.2252    2.0618   -2.3364 H   0  0  0  0  0  0  0  0  0  0  0  0
   -3.4462    0.2741   -2.0614 H   0  0  0  0  0  0  0  0  0  0  0  0
    2.9197   -1.8186   -0.1281 H   0  0  0  0  0  0  0  0  0  0  0  0
  1  2  1  0
  2  3  1  0
  3  4  2  0
  4  5  1  0
  5  6  2  0
  6  7  1  0
  7  8  1  0
  8  9  2  0
  9 10  1  0
 10 11  1  0
 11 12  1  0
 12 13  1  0
 13 14  2  0
 14 15  1  0
 15 16  2  0
 16 17  1  0
 16 18  1  0
 18 19  1  0
 18 20  2  0
 11 21  2  0
  7 22  2  0
 22  3  1  0
 21  8  1  0
 20 13  1  0
  1 23  1  0
  1 24  1  0
  1 25  1  0
  4 26  1  0
  5 27  1  0
  6 28  1  0
 10 29  1  0
 12 30  1  0
 12 31  1  0
 14 32  1  0
 15 33  1  0
 17 34  1  0
 17 35  1  0
 17 36  1  0
 19 37  1  0
 19 38  1  0
 19 39  1  0
 20 40  1  0
 22 41  1  0
M  END
>  <Original_Name>  (34) 
CHEMBL165760

>  <ROSHAMBO_ComboTanimoto>  (34) 
1.001

>  <ROSHAMBO_ShapeTanimoto>  (34) 
0.752

>  <ROSHAMBO_ColorTanimoto>  (34) 
0.249

>  <ROSHAMBO_FitTverskyCombo>  (34) 
1.494

>  <ROSHAMBO_FitTversky>  (34) 
0.931

>  <ROSHAMBO_FitColorTversky>  (34) 
0.563

>  <ROSHAMBO_RefTverskyCombo>  (34) 
1.106

>  <ROSHAMBO_RefTversky>  (34) 
0.796

>  <ROSHAMBO_RefColorTversky>  (34) 
0.309

>  <ROSHAMBO_Overlap>  (34) 
972.177

$$$$
CHEMBL426530_0_97
     RDKit          3D

 38 40  0  0  0  0  0  0  0  0999 V2000
   -8.2443    1.2291   -0.0464 C   0  0  0  0  0  0  0  0  0  0  0  0
   -7.0673    0.6988   -0.0273 O   0  0  0  0  0  0  0  0  0  0  0  0
   -5.8876    0.1977   -0.0267 C   0  0  0  0  0  0  0  0  0  0  0  0
   -5.5914   -1.0073    0.6299 C   0  0  0  0  0  0  0  0  0  0  0  0
   -4.3561   -1.5686    0.6528 C   0  0  0  0  0  0  0  0  0  0  0  0
   -3.3340   -0.9364    0.0046 C   0  0  0  0  0  0  0  0  0  0  0  0
   -3.6071    0.2364   -0.6383 C   0  0  0  0  0  0  0  0  0  0  0  0
   -4.8198    0.7792   -0.6557 N   0  0  0  0  0  0  0  0  0  0  0  0
   -2.0159   -1.5454    0.0330 C   0  0  0  0  0  0  0  0  0  0  0  0
   -1.9204   -2.9160    0.0771 C   0  0  0  0  0  0  0  0  0  0  0  0
   -0.6699   -3.5272    0.1053 C   0  0  0  0  0  0  0  0  0  0  0  0
    0.4400   -2.7138    0.0873 C   0  0  0  0  0  0  0  0  0  0  0  0
    0.3906   -1.3357    0.0434 C   0  0  0  0  0  0  0  0  0  0  0  0
   -0.8820   -0.7786    0.0168 C   0  0  0  0  0  0  0  0  0  0  0  0
    1.5731   -0.4940    0.0245 C   0  0  0  0  0  0  0  0  0  0  0  0
    1.4183    0.8375   -0.0184 N   0  0  0  0  0  0  0  0  0  0  0  0
    2.4788    1.6868   -0.0392 C   0  0  0  0  0  0  0  0  0  0  0  0
    2.2476    3.1041   -0.0847 N   0  0  0  0  0  0  0  0  0  0  0  0
    3.7228    1.2059   -0.0169 N   0  0  0  0  0  0  0  0  0  0  0  0
    3.8966   -0.1230    0.0260 C   0  0  0  0  0  0  0  0  0  0  0  0
    5.5593   -0.7549    0.0552 S   0  0  0  0  0  0  0  0  0  0  0  0
    6.7645    0.5770    0.0192 C   0  0  0  0  0  0  0  0  0  0  0  0
    2.8371   -0.9520    0.0461 N   0  0  0  0  0  0  0  0  0  0  0  0
   -8.5926    1.3860    0.9851 H   0  0  0  0  0  0  0  0  0  0  0  0
   -8.2027    2.1955   -0.5703 H   0  0  0  0  0  0  0  0  0  0  0  0
   -8.9406    0.5577   -0.5703 H   0  0  0  0  0  0  0  0  0  0  0  0
   -6.4067   -1.5258    1.1556 H   0  0  0  0  0  0  0  0  0  0  0  0
   -4.1814   -2.5159    1.1840 H   0  0  0  0  0  0  0  0  0  0  0  0
   -2.7901    0.7531   -1.1633 H   0  0  0  0  0  0  0  0  0  0  0  0
   -2.8328   -3.5303    0.0901 H   0  0  0  0  0  0  0  0  0  0  0  0
   -0.5723   -4.6222    0.1407 H   0  0  0  0  0  0  0  0  0  0  0  0
    1.4299   -3.1930    0.1095 H   0  0  0  0  0  0  0  0  0  0  0  0
   -0.9818    0.3163   -0.0186 H   0  0  0  0  0  0  0  0  0  0  0  0
    3.0451    3.7557   -0.1007 H   0  0  0  0  0  0  0  0  0  0  0  0
    1.2844    3.4685   -0.1013 H   0  0  0  0  0  0  0  0  0  0  0  0
    7.0244    0.8642    1.0487 H   0  0  0  0  0  0  0  0  0  0  0  0
    7.6695    0.2385   -0.5066 H   0  0  0  0  0  0  0  0  0  0  0  0
    6.3375    1.4438   -0.5066 H   0  0  0  0  0  0  0  0  0  0  0  0
  1  2  1  0
  2  3  1  0
  3  4  2  0
  4  5  1  0
  5  6  2  0
  6  7  1  0
  7  8  2  0
  6  9  1  0
  9 10  2  0
 10 11  1  0
 11 12  2  0
 12 13  1  0
 13 14  2  0
 13 15  1  0
 15 16  2  0
 16 17  1  0
 17 18  1  0
 17 19  2  0
 19 20  1  0
 20 21  1  0
 21 22  1  0
 20 23  2  0
  8  3  1  0
 14  9  1  0
 23 15  1  0
  1 24  1  0
  1 25  1  0
  1 26  1  0
  4 27  1  0
  5 28  1  0
  7 29  1  0
 10 30  1  0
 11 31  1  0
 12 32  1  0
 14 33  1  0
 18 34  1  0
 18 35  1  0
 22 36  1  0
 22 37  1  0
 22 38  1  0
M  END
>  <Original_Name>  (35) 
CHEMBL426530

>  <ROSHAMBO_ComboTanimoto>  (35) 
0.979

>  <ROSHAMBO_ShapeTanimoto>  (35) 
0.731

>  <ROSHAMBO_ColorTanimoto>  (35) 
0.248

>  <ROSHAMBO_FitTverskyCombo>  (35) 
1.352

>  <ROSHAMBO_FitTversky>  (35) 
0.9

>  <ROSHAMBO_FitColorTversky>  (35) 
0.453

>  <ROSHAMBO_RefTverskyCombo>  (35) 
1.151

>  <ROSHAMBO_RefTversky>  (35) 
0.797

>  <ROSHAMBO_RefColorTversky>  (35) 
0.354

>  <ROSHAMBO_Overlap>  (35) 
974.025

$$$$
CHEMBL392136_0_63
     RDKit          3D

 35 38  0  0  0  0  0  0  0  0999 V2000
   -6.9032    0.6196   -0.4182 C   0  0  0  0  0  0  0  0  0  0  0  0
   -5.4371    0.3522   -0.3310 C   0  0  0  0  0  0  0  0  0  0  0  0
   -4.5264    1.0819   -1.0678 C   0  0  0  0  0  0  0  0  0  0  0  0
   -3.1717    0.8258   -0.9792 C   0  0  0  0  0  0  0  0  0  0  0  0
   -2.6619   -0.1643   -0.1569 C   0  0  0  0  0  0  0  0  0  0  0  0
   -1.2225   -0.4119   -0.0845 C   0  0  0  0  0  0  0  0  0  0  0  0
   -0.6087   -1.6087   -0.1094 N   0  0  0  0  0  0  0  0  0  0  0  0
    0.7072   -1.4388   -0.0230 N   0  0  0  0  0  0  0  0  0  0  0  0
    1.7256   -2.3150   -0.0076 C   0  0  0  0  0  0  0  0  0  0  0  0
    1.4492   -3.7138   -0.0954 N   0  0  0  0  0  0  0  0  0  0  0  0
    3.0055   -1.9263    0.0879 N   0  0  0  0  0  0  0  0  0  0  0  0
    3.3038   -0.6290    0.1719 C   0  0  0  0  0  0  0  0  0  0  0  0
    4.6180   -0.1934    0.2718 C   0  0  0  0  0  0  0  0  0  0  0  0
    4.9026    1.1365    0.3566 C   0  0  0  0  0  0  0  0  0  0  0  0
    3.8773    2.0476    0.3426 C   0  0  0  0  0  0  0  0  0  0  0  0
    4.1871    3.7609    0.4485 Cl  0  0  0  0  0  0  0  0  0  0  0  0
    2.5594    1.6197    0.2428 C   0  0  0  0  0  0  0  0  0  0  0  0
    2.2830    0.2878    0.1584 C   0  0  0  0  0  0  0  0  0  0  0  0
    1.0005   -0.1417    0.0607 N   0  0  0  0  0  0  0  0  0  0  0  0
   -0.1858    0.4920    0.0230 C   0  0  0  0  0  0  0  0  0  0  0  0
   -0.3939    1.7282    0.0739 O   0  0  0  0  0  0  0  0  0  0  0  0
   -3.5857   -0.8855    0.5736 C   0  0  0  0  0  0  0  0  0  0  0  0
   -4.9408   -0.6365    0.4914 C   0  0  0  0  0  0  0  0  0  0  0  0
   -7.3229    0.6962    0.5957 H   0  0  0  0  0  0  0  0  0  0  0  0
   -7.0724    1.5634   -0.9573 H   0  0  0  0  0  0  0  0  0  0  0  0
   -7.3947   -0.2037   -0.9573 H   0  0  0  0  0  0  0  0  0  0  0  0
   -4.8845    1.8794   -1.7354 H   0  0  0  0  0  0  0  0  0  0  0  0
   -2.4757    1.4281   -1.5816 H   0  0  0  0  0  0  0  0  0  0  0  0
    2.2231   -4.3934   -0.0844 H   0  0  0  0  0  0  0  0  0  0  0  0
    0.4760   -4.0428   -0.1697 H   0  0  0  0  0  0  0  0  0  0  0  0
    5.4367   -0.9281    0.2826 H   0  0  0  0  0  0  0  0  0  0  0  0
    5.9457    1.4766    0.4356 H   0  0  0  0  0  0  0  0  0  0  0  0
    1.7407    2.3543    0.2320 H   0  0  0  0  0  0  0  0  0  0  0  0
   -3.2303   -1.6836    1.2421 H   0  0  0  0  0  0  0  0  0  0  0  0
   -5.6377   -1.2381    1.0933 H   0  0  0  0  0  0  0  0  0  0  0  0
  1  2  1  0
  2  3  2  0
  3  4  1  0
  4  5  2  0
  5  6  1  0
  6  7  2  0
  7  8  1  0
  8  9  1  0
  9 10  1  0
  9 11  2  0
 11 12  1  0
 12 13  2  0
 13 14  1  0
 14 15  2  0
 15 16  1  0
 15 17  1  0
 17 18  2  0
 18 19  1  0
 19 20  1  0
 20 21  2  0
  5 22  1  0
 22 23  2  0
 23  2  1  0
 20  6  1  0
 19  8  1  0
 18 12  1  0
  1 24  1  0
  1 25  1  0
  1 26  1  0
  3 27  1  0
  4 28  1  0
 10 29  1  0
 10 30  1  0
 13 31  1  0
 14 32  1  0
 17 33  1  0
 22 34  1  0
 23 35  1  0
M  END
>  <Original_Name>  (36) 
CHEMBL392136

>  <ROSHAMBO_ComboTanimoto>  (36) 
0.944

>  <ROSHAMBO_ShapeTanimoto>  (36) 
0.626

>  <ROSHAMBO_ColorTanimoto>  (36) 
0.318

>  <ROSHAMBO_FitTverskyCombo>  (36) 
1.363

>  <ROSHAMBO_FitTversky>  (36) 
0.8

>  <ROSHAMBO_FitColorTversky>  (36) 
0.564

>  <ROSHAMBO_RefTverskyCombo>  (36) 
1.164

>  <ROSHAMBO_RefTversky>  (36) 
0.743

>  <ROSHAMBO_RefColorTversky>  (36) 
0.422

>  <ROSHAMBO_Overlap>  (36) 
910.071

$$$$
CHEMBL100382_0_80
     RDKit          3D

 46 50  0  0  0  0  0  0  0  0999 V2000
   -0.7327   -1.3139   -0.1838 O   0  0  0  0  0  0  0  0  0  0  0  0
   -0.9349   -0.1112    0.0304 C   0  0  0  0  0  0  0  0  0  0  0  0
   -2.3504    0.3592    0.0925 C   0  0  0  0  0  0  0  0  0  0  0  0
   -3.3228   -0.7579   -0.1250 C   0  0  0  0  0  0  0  0  0  0  0  0
   -4.6937   -0.1951   -0.0455 C   0  0  0  0  0  0  0  0  0  0  0  0
   -5.4047   -0.1189    1.1468 C   0  0  0  0  0  0  0  0  0  0  0  0
   -6.6720    0.4033    1.2098 C   0  0  0  0  0  0  0  0  0  0  0  0
   -7.2939    0.8745    0.0933 C   0  0  0  0  0  0  0  0  0  0  0  0
   -6.6101    0.8114   -1.1076 C   0  0  0  0  0  0  0  0  0  0  0  0
   -5.3269    0.2826   -1.1713 C   0  0  0  0  0  0  0  0  0  0  0  0
    0.1616    0.7331    0.2008 N   0  0  0  0  0  0  0  0  0  0  0  0
    1.5316    0.4670    0.1749 C   0  0  0  0  0  0  0  0  0  0  0  0
    2.3530    1.5544    0.3857 N   0  0  0  0  0  0  0  0  0  0  0  0
    3.6733    1.4676    0.3915 C   0  0  0  0  0  0  0  0  0  0  0  0
    4.4590    2.5746    0.6053 C   0  0  0  0  0  0  0  0  0  0  0  0
    5.8423    2.4802    0.6108 C   0  0  0  0  0  0  0  0  0  0  0  0
    6.4502    1.2613    0.3994 C   0  0  0  0  0  0  0  0  0  0  0  0
    8.1928    1.1395    0.4057 Cl  0  0  0  0  0  0  0  0  0  0  0  0
    5.6364    0.1374    0.1821 C   0  0  0  0  0  0  0  0  0  0  0  0
    4.2705    0.2495    0.1802 C   0  0  0  0  0  0  0  0  0  0  0  0
    3.4740   -0.8547   -0.0333 C   0  0  0  0  0  0  0  0  0  0  0  0
    3.7433   -2.1337   -0.2611 N   0  0  0  0  0  0  0  0  0  0  0  0
    2.5722   -2.7727   -0.3962 C   0  0  0  0  0  0  0  0  0  0  0  0
    2.4819   -4.2105   -0.6588 C   0  0  0  0  0  0  0  0  0  0  0  0
    1.7556   -4.7411   -1.7236 C   0  0  0  0  0  0  0  0  0  0  0  0
    1.8935   -6.1043   -1.6603 C   0  0  0  0  0  0  0  0  0  0  0  0
    2.6945   -6.3595   -0.5656 C   0  0  0  0  0  0  0  0  0  0  0  0
    3.0091   -5.2140   -0.0175 O   0  0  0  0  0  0  0  0  0  0  0  0
    1.5701   -1.8969   -0.2536 N   0  0  0  0  0  0  0  0  0  0  0  0
    2.1035   -0.7172   -0.0307 N   0  0  0  0  0  0  0  0  0  0  0  0
   -2.5343    0.8023    1.0823 H   0  0  0  0  0  0  0  0  0  0  0  0
   -2.4980    1.0987   -0.7084 H   0  0  0  0  0  0  0  0  0  0  0  0
   -3.1604   -1.2064   -1.1162 H   0  0  0  0  0  0  0  0  0  0  0  0
   -3.1853   -1.5380    0.6382 H   0  0  0  0  0  0  0  0  0  0  0  0
   -4.9358   -0.4896    2.0703 H   0  0  0  0  0  0  0  0  0  0  0  0
   -7.1941    0.4420    2.1773 H   0  0  0  0  0  0  0  0  0  0  0  0
   -8.3099    1.2929    0.1450 H   0  0  0  0  0  0  0  0  0  0  0  0
   -7.0890    1.1850   -2.0248 H   0  0  0  0  0  0  0  0  0  0  0  0
   -4.8066    0.2448   -2.1397 H   0  0  0  0  0  0  0  0  0  0  0  0
   -0.0800    1.7191    0.3752 H   0  0  0  0  0  0  0  0  0  0  0  0
    3.9827    3.5515    0.7749 H   0  0  0  0  0  0  0  0  0  0  0  0
    6.4543    3.3777    0.7837 H   0  0  0  0  0  0  0  0  0  0  0  0
    6.1011   -0.8449    0.0114 H   0  0  0  0  0  0  0  0  0  0  0  0
    1.1815   -4.1748   -2.4717 H   0  0  0  0  0  0  0  0  0  0  0  0
    1.4540   -6.8452   -2.3443 H   0  0  0  0  0  0  0  0  0  0  0  0
    3.0127   -7.3525   -0.2152 H   0  0  0  0  0  0  0  0  0  0  0  0
  1  2  2  0
  2  3  1  0
  3  4  1  0
  4  5  1  0
  5  6  2  0
  6  7  1  0
  7  8  2  0
  8  9  1  0
  9 10  2  0
  2 11  1  0
 11 12  1  0
 12 13  2  0
 13 14  1  0
 14 15  2  0
 15 16  1  0
 16 17  2  0
 17 18  1  0
 17 19  1  0
 19 20  2  0
 20 21  1  0
 21 22  2  0
 22 23  1  0
 23 24  1  0
 24 25  2  0
 25 26  1  0
 26 27  2  0
 27 28  1  0
 23 29  2  0
 29 30  1  0
 10  5  1  0
 30 12  1  0
 20 14  1  0
 30 21  1  0
 28 24  1  0
  3 31  1  0
  3 32  1  0
  4 33  1  0
  4 34  1  0
  6 35  1  0
  7 36  1  0
  8 37  1  0
  9 38  1  0
 10 39  1  0
 11 40  1  0
 15 41  1  0
 16 42  1  0
 19 43  1  0
 25 44  1  0
 26 45  1  0
 27 46  1  0
M  END
>  <Original_Name>  (37) 
CHEMBL100382

>  <ROSHAMBO_ComboTanimoto>  (37) 
0.943

>  <ROSHAMBO_ShapeTanimoto>  (37) 
0.605

>  <ROSHAMBO_ColorTanimoto>  (37) 
0.339

>  <ROSHAMBO_FitTverskyCombo>  (37) 
1.234

>  <ROSHAMBO_FitTversky>  (37) 
0.698

>  <ROSHAMBO_FitColorTversky>  (37) 
0.536

>  <ROSHAMBO_RefTverskyCombo>  (37) 
1.298

>  <ROSHAMBO_RefTversky>  (37) 
0.819

>  <ROSHAMBO_RefColorTversky>  (37) 
0.479

>  <ROSHAMBO_Overlap>  (37) 
1017.757

$$$$
CHEMBL398272_0_97
     RDKit          3D

 48 51  0  0  0  0  0  0  0  0999 V2000
   -6.8093    2.4399    0.6539 C   0  0  0  0  0  0  0  0  0  0  0  0
   -6.7961    0.9798    0.5553 N   0  0  0  0  0  4  0  0  0  0  0  0
   -5.7285    0.4975    1.3737 C   0  0  0  0  0  0  0  0  0  0  0  0
   -4.6839   -0.3025    0.6070 C   0  0  0  0  0  0  0  0  0  0  0  0
   -4.2862    0.4013   -0.5605 N   0  0  0  0  0  0  0  0  0  0  0  0
   -3.1015    1.1784   -0.4870 C   0  0  0  0  0  0  0  0  0  0  0  0
   -1.9277    0.2808   -0.3664 C   0  0  0  0  0  0  0  0  0  0  0  0
   -2.0627   -0.9658   -0.3328 O   0  0  0  0  0  0  0  0  0  0  0  0
   -0.6080    0.8024   -0.2858 N   0  0  0  0  0  0  0  0  0  0  0  0
    0.5495   -0.0123   -0.1729 C   0  0  0  0  0  0  0  0  0  0  0  0
    1.7976    0.5621   -0.1111 C   0  0  0  0  0  0  0  0  0  0  0  0
    2.8901   -0.2743   -0.0044 C   0  0  0  0  0  0  0  0  0  0  0  0
    4.1858    0.3511    0.0544 C   0  0  0  0  0  0  0  0  0  0  0  0
    4.7322    1.4830    0.0452 N   0  0  0  0  0  0  0  0  0  0  0  0
    5.9624    1.7731    0.1147 C   0  0  0  0  0  0  0  0  0  0  0  0
    6.8960    0.7062    0.2179 C   0  0  0  0  0  0  0  0  0  0  0  0
    5.7193   -0.7065    0.1968 S   0  0  0  0  0  0  0  0  0  0  0  0
    2.7133   -1.6107    0.0356 N   0  0  0  0  0  0  0  0  0  0  0  0
    1.5001   -2.1832   -0.0240 C   0  0  0  0  0  0  0  0  0  0  0  0
    1.3490   -3.6406    0.0218 C   0  0  0  0  0  0  0  0  0  0  0  0
    2.0668   -4.5352   -0.7803 C   0  0  0  0  0  0  0  0  0  0  0  0
    1.6465   -5.7953   -0.4440 C   0  0  0  0  0  0  0  0  0  0  0  0
    0.6992   -5.6519    0.5365 C   0  0  0  0  0  0  0  0  0  0  0  0
    0.5693   -4.3815    0.7643 O   0  0  0  0  0  0  0  0  0  0  0  0
    0.4341   -1.3722   -0.1273 N   0  0  0  0  0  0  0  0  0  0  0  0
   -5.3215    0.8737   -1.4130 C   0  0  0  0  0  0  0  0  0  0  0  0
   -6.6739    0.5531   -0.8062 C   0  0  0  0  0  0  0  0  0  0  0  0
   -6.8120    2.7359    1.7133 H   0  0  0  0  0  0  0  0  0  0  0  0
   -5.9148    2.8488    0.1612 H   0  0  0  0  0  0  0  0  0  0  0  0
   -7.7110    2.8325    0.1612 H   0  0  0  0  0  0  0  0  0  0  0  0
   -7.6872    0.5878    0.8915 H   0  0  0  0  0  0  0  0  0  0  0  0
   -5.2313    1.3606    1.8405 H   0  0  0  0  0  0  0  0  0  0  0  0
   -6.1734   -0.1819    2.1156 H   0  0  0  0  0  0  0  0  0  0  0  0
   -3.8063   -0.4645    1.2502 H   0  0  0  0  0  0  0  0  0  0  0  0
   -5.1176   -1.2696    0.3126 H   0  0  0  0  0  0  0  0  0  0  0  0
   -3.0053    1.7872   -1.3982 H   0  0  0  0  0  0  0  0  0  0  0  0
   -3.1500    1.8384    0.3917 H   0  0  0  0  0  0  0  0  0  0  0  0
   -0.4849    1.8247   -0.3107 H   0  0  0  0  0  0  0  0  0  0  0  0
    1.9212    1.6546   -0.1456 H   0  0  0  0  0  0  0  0  0  0  0  0
    6.2990    2.8201    0.0958 H   0  0  0  0  0  0  0  0  0  0  0  0
    7.9936    0.7213    0.2890 H   0  0  0  0  0  0  0  0  0  0  0  0
    2.8233   -4.2763   -1.5358 H   0  0  0  0  0  0  0  0  0  0  0  0
    2.0016   -6.7416   -0.8781 H   0  0  0  0  0  0  0  0  0  0  0  0
    0.1509   -6.4635    1.0371 H   0  0  0  0  0  0  0  0  0  0  0  0
   -5.2251    1.9626   -1.5354 H   0  0  0  0  0  0  0  0  0  0  0  0
   -5.2375    0.3814   -2.3931 H   0  0  0  0  0  0  0  0  0  0  0  0
   -7.4518    1.0544   -1.4010 H   0  0  0  0  0  0  0  0  0  0  0  0
   -6.7866   -0.5410   -0.8176 H   0  0  0  0  0  0  0  0  0  0  0  0
  1  2  1  0
  2  3  1  0
  3  4  1  0
  4  5  1  0
  5  6  1  0
  6  7  1  0
  7  8  2  0
  7  9  1  0
  9 10  1  0
 10 11  2  0
 11 12  1  0
 12 13  1  0
 13 14  2  0
 14 15  1  0
 15 16  2  0
 16 17  1  0
 12 18  2  0
 18 19  1  0
 19 20  1  0
 20 21  2  0
 21 22  1  0
 22 23  2  0
 23 24  1  0
 19 25  2  0
  5 26  1  0
 26 27  1  0
 27  2  1  0
 25 10  1  0
 17 13  1  0
 24 20  1  0
  1 28  1  0
  1 29  1  0
  1 30  1  0
  2 31  1  0
  3 32  1  0
  3 33  1  0
  4 34  1  0
  4 35  1  0
  6 36  1  0
  6 37  1  0
  9 38  1  0
 11 39  1  0
 15 40  1  0
 16 41  1  0
 21 42  1  0
 22 43  1  0
 23 44  1  0
 26 45  1  0
 26 46  1  0
 27 47  1  0
 27 48  1  0
M  CHG  1   2   1
M  END
>  <Original_Name>  (38) 
CHEMBL398272

>  <ROSHAMBO_ComboTanimoto>  (38) 
0.94

>  <ROSHAMBO_ShapeTanimoto>  (38) 
0.602

>  <ROSHAMBO_ColorTanimoto>  (38) 
0.338

>  <ROSHAMBO_FitTverskyCombo>  (38) 
1.275

>  <ROSHAMBO_FitTversky>  (38) 
0.74

>  <ROSHAMBO_FitColorTversky>  (38) 
0.535

>  <ROSHAMBO_RefTverskyCombo>  (38) 
1.242

>  <ROSHAMBO_RefTversky>  (38) 
0.763

>  <ROSHAMBO_RefColorTversky>  (38) 
0.479

>  <ROSHAMBO_Overlap>  (38) 
940.135

$$$$
CHEMBL256382_0_43
     RDKit          3D

 46 49  0  0  0  0  0  0  0  0999 V2000
   -8.5529   -0.3897   -0.8677 C   0  0  0  0  0  0  0  0  0  0  0  0
   -7.7892   -0.1214    0.2848 O   0  0  0  0  0  0  0  0  0  0  0  0
   -6.4972    0.4048    0.2144 C   0  0  0  0  0  0  0  0  0  0  0  0
   -5.8998    0.6902   -0.9887 C   0  0  0  0  0  0  0  0  0  0  0  0
   -4.6130    1.2148   -1.0748 C   0  0  0  0  0  0  0  0  0  0  0  0
   -3.8889    1.4672    0.0630 C   0  0  0  0  0  0  0  0  0  0  0  0
   -2.5280    2.0184    0.0728 C   0  0  0  0  0  0  0  0  0  0  0  0
   -1.4924    0.9414    0.0305 C   0  0  0  0  0  0  0  0  0  0  0  0
   -1.8844   -0.2437   -0.0063 O   0  0  0  0  0  0  0  0  0  0  0  0
   -0.1209    1.1963    0.0302 N   0  0  0  0  0  0  0  0  0  0  0  0
    0.9532    0.2778   -0.0070 C   0  0  0  0  0  0  0  0  0  0  0  0
    0.8034   -1.0831   -0.0510 C   0  0  0  0  0  0  0  0  0  0  0  0
    1.9380   -1.8687   -0.0843 C   0  0  0  0  0  0  0  0  0  0  0  0
    1.7476   -3.3150   -0.1308 C   0  0  0  0  0  0  0  0  0  0  0  0
    0.6903   -4.0978   -0.1496 N   0  0  0  0  0  0  0  0  0  0  0  0
    0.7771   -5.3713   -0.1922 C   0  0  0  0  0  0  0  0  0  0  0  0
    1.9889   -5.9989   -0.2210 C   0  0  0  0  0  0  0  0  0  0  0  0
    3.0666   -4.5260   -0.1795 S   0  0  0  0  0  0  0  0  0  0  0  0
    3.1327   -1.2881   -0.0730 N   0  0  0  0  0  0  0  0  0  0  0  0
    3.3034    0.0387   -0.0303 C   0  0  0  0  0  0  0  0  0  0  0  0
    4.6708    0.5689   -0.0217 C   0  0  0  0  0  0  0  0  0  0  0  0
    5.7465   -0.2940   -0.0572 C   0  0  0  0  0  0  0  0  0  0  0  0
    7.0510    0.1428   -0.0513 C   0  0  0  0  0  0  0  0  0  0  0  0
    7.2683    1.5032   -0.0078 C   0  0  0  0  0  0  0  0  0  0  0  0
    6.1849    2.3512    0.0272 C   0  0  0  0  0  0  0  0  0  0  0  0
    4.9397    1.8625    0.0192 N   0  0  0  0  0  0  0  0  0  0  0  0
    2.2292    0.8040    0.0020 N   0  0  0  0  0  0  0  0  0  0  0  0
   -4.4901    1.1801    1.2710 C   0  0  0  0  0  0  0  0  0  0  0  0
   -5.7673    0.6594    1.3560 C   0  0  0  0  0  0  0  0  0  0  0  0
   -9.5524   -0.7408   -0.5717 H   0  0  0  0  0  0  0  0  0  0  0  0
   -8.6491    0.5285   -1.4658 H   0  0  0  0  0  0  0  0  0  0  0  0
   -8.0537   -1.1662   -1.4658 H   0  0  0  0  0  0  0  0  0  0  0  0
   -6.4576    0.4976   -1.9170 H   0  0  0  0  0  0  0  0  0  0  0  0
   -4.1743    1.4281   -2.0608 H   0  0  0  0  0  0  0  0  0  0  0  0
   -2.4010    2.6690   -0.8051 H   0  0  0  0  0  0  0  0  0  0  0  0
   -2.3949    2.5840    1.0068 H   0  0  0  0  0  0  0  0  0  0  0  0
    0.1460    2.1906    0.0615 H   0  0  0  0  0  0  0  0  0  0  0  0
   -0.1975   -1.5392   -0.0595 H   0  0  0  0  0  0  0  0  0  0  0  0
   -0.1428   -5.9742   -0.2060 H   0  0  0  0  0  0  0  0  0  0  0  0
    2.2402   -7.0692   -0.2580 H   0  0  0  0  0  0  0  0  0  0  0  0
    5.5532   -1.3763   -0.0917 H   0  0  0  0  0  0  0  0  0  0  0  0
    7.8901   -0.5678   -0.0802 H   0  0  0  0  0  0  0  0  0  0  0  0
    8.2923    1.9050   -0.0012 H   0  0  0  0  0  0  0  0  0  0  0  0
    6.3441    3.4391    0.0621 H   0  0  0  0  0  0  0  0  0  0  0  0
   -3.9329    1.3724    2.1997 H   0  0  0  0  0  0  0  0  0  0  0  0
   -6.2051    0.4465    2.3424 H   0  0  0  0  0  0  0  0  0  0  0  0
  1  2  1  0
  2  3  1  0
  3  4  2  0
  4  5  1  0
  5  6  2  0
  6  7  1  0
  7  8  1  0
  8  9  2  0
  8 10  1  0
 10 11  1  0
 11 12  2  0
 12 13  1  0
 13 14  1  0
 14 15  2  0
 15 16  1  0
 16 17  2  0
 17 18  1  0
 13 19  2  0
 19 20  1  0
 20 21  1  0
 21 22  2  0
 22 23  1  0
 23 24  2  0
 24 25  1  0
 25 26  2  0
 20 27  2  0
  6 28  1  0
 28 29  2  0
 29  3  1  0
 27 11  1  0
 18 14  1  0
 26 21  1  0
  1 30  1  0
  1 31  1  0
  1 32  1  0
  4 33  1  0
  5 34  1  0
  7 35  1  0
  7 36  1  0
 10 37  1  0
 12 38  1  0
 16 39  1  0
 17 40  1  0
 22 41  1  0
 23 42  1  0
 24 43  1  0
 25 44  1  0
 28 45  1  0
 29 46  1  0
M  END
>  <Original_Name>  (39) 
CHEMBL256382

>  <ROSHAMBO_ComboTanimoto>  (39) 
0.94

>  <ROSHAMBO_ShapeTanimoto>  (39) 
0.554

>  <ROSHAMBO_ColorTanimoto>  (39) 
0.386

>  <ROSHAMBO_FitTverskyCombo>  (39) 
1.313

>  <ROSHAMBO_FitTversky>  (39) 
0.681

>  <ROSHAMBO_FitColorTversky>  (39) 
0.632

>  <ROSHAMBO_RefTverskyCombo>  (39) 
1.246

>  <ROSHAMBO_RefTversky>  (39) 
0.748

>  <ROSHAMBO_RefColorTversky>  (39) 
0.498

>  <ROSHAMBO_Overlap>  (39) 
925.035

$$$$
CHEMBL118164_0_61
     RDKit          3D

 34 37  0  0  0  0  0  0  0  0999 V2000
   -6.6327    0.5079    0.0286 N   0  0  0  0  0  0  0  0  0  0  0  0
   -5.2227    0.3264    0.0067 C   0  0  0  0  0  0  0  0  0  0  0  0
   -4.6233   -0.5954    0.8352 C   0  0  0  0  0  0  0  0  0  0  0  0
   -3.2560   -0.7895    0.8319 C   0  0  0  0  0  0  0  0  0  0  0  0
   -2.4361   -0.0665   -0.0026 C   0  0  0  0  0  0  0  0  0  0  0  0
   -1.0129   -0.2592   -0.0152 N   0  0  0  0  0  0  0  0  0  0  0  0
   -0.3745   -1.4095   -0.0937 N   0  0  0  0  0  0  0  0  0  0  0  0
    0.9562   -1.2366   -0.0813 C   0  0  0  0  0  0  0  0  0  0  0  0
    2.0031   -2.1605   -0.1441 C   0  0  0  0  0  0  0  0  0  0  0  0
    1.7176   -3.5434   -0.2389 N   0  0  0  0  0  0  0  0  0  0  0  0
    3.2373   -1.6425   -0.1082 N   0  0  0  0  0  0  0  0  0  0  0  0
    3.4881   -0.3230   -0.0178 C   0  0  0  0  0  0  0  0  0  0  0  0
    4.7616    0.1938    0.0180 C   0  0  0  0  0  0  0  0  0  0  0  0
    5.0071    1.5442    0.1106 C   0  0  0  0  0  0  0  0  0  0  0  0
    3.9551    2.4202    0.1701 C   0  0  0  0  0  0  0  0  0  0  0  0
    2.6564    1.8954    0.1337 C   0  0  0  0  0  0  0  0  0  0  0  0
    2.4064    0.5584    0.0421 C   0  0  0  0  0  0  0  0  0  0  0  0
    1.1649    0.0862    0.0093 N   0  0  0  0  0  0  0  0  0  0  0  0
   -0.0515    0.6812    0.0495 C   0  0  0  0  0  0  0  0  0  0  0  0
   -0.3226    1.9017    0.1329 O   0  0  0  0  0  0  0  0  0  0  0  0
   -3.0253    0.8607   -0.8377 C   0  0  0  0  0  0  0  0  0  0  0  0
   -4.3961    1.0497   -0.8290 C   0  0  0  0  0  0  0  0  0  0  0  0
   -7.0726    1.1999   -0.5947 H   0  0  0  0  0  0  0  0  0  0  0  0
   -7.2143   -0.0526    0.6678 H   0  0  0  0  0  0  0  0  0  0  0  0
   -5.2485   -1.1916    1.5161 H   0  0  0  0  0  0  0  0  0  0  0  0
   -2.8148   -1.5358    1.5090 H   0  0  0  0  0  0  0  0  0  0  0  0
    2.4874   -4.2262   -0.2853 H   0  0  0  0  0  0  0  0  0  0  0  0
    0.7400   -3.8671   -0.2614 H   0  0  0  0  0  0  0  0  0  0  0  0
    5.6155   -0.4980   -0.0290 H   0  0  0  0  0  0  0  0  0  0  0  0
    6.0412    1.9184    0.1366 H   0  0  0  0  0  0  0  0  0  0  0  0
    4.1252    3.5045    0.2444 H   0  0  0  0  0  0  0  0  0  0  0  0
    1.8047    2.5898    0.1808 H   0  0  0  0  0  0  0  0  0  0  0  0
   -2.3985    1.4560   -1.5179 H   0  0  0  0  0  0  0  0  0  0  0  0
   -4.8384    1.7957   -1.5056 H   0  0  0  0  0  0  0  0  0  0  0  0
  1  2  1  0
  2  3  2  0
  3  4  1  0
  4  5  2  0
  5  6  1  0
  6  7  1  0
  7  8  2  0
  8  9  1  0
  9 10  1  0
  9 11  2  0
 11 12  1  0
 12 13  2  0
 13 14  1  0
 14 15  2  0
 15 16  1  0
 16 17  2  0
 17 18  1  0
 18 19  1  0
 19 20  2  0
  5 21  1  0
 21 22  2  0
 22  2  1  0
 19  6  1  0
 18  8  1  0
 17 12  1  0
  1 23  1  0
  1 24  1  0
  3 25  1  0
  4 26  1  0
 10 27  1  0
 10 28  1  0
 13 29  1  0
 14 30  1  0
 15 31  1  0
 16 32  1  0
 21 33  1  0
 22 34  1  0
M  END
>  <Original_Name>  (40) 
CHEMBL118164

>  <ROSHAMBO_ComboTanimoto>  (40) 
0.938

>  <ROSHAMBO_ShapeTanimoto>  (40) 
0.611

>  <ROSHAMBO_ColorTanimoto>  (40) 
0.328

>  <ROSHAMBO_FitTverskyCombo>  (40) 
1.337

>  <ROSHAMBO_FitTversky>  (40) 
0.799

>  <ROSHAMBO_FitColorTversky>  (40) 
0.538

>  <ROSHAMBO_RefTverskyCombo>  (40) 
1.178

>  <ROSHAMBO_RefTversky>  (40) 
0.722

>  <ROSHAMBO_RefColorTversky>  (40) 
0.456

>  <ROSHAMBO_Overlap>  (40) 
883.52

$$$$
CHEMBL77279_0_25
     RDKit          3D

 59 61  0  0  0  0  0  0  0  0999 V2000
   -0.7707    4.1779    2.0204 C   0  0  0  0  0  0  0  0  0  0  0  0
    0.0705    2.9438    1.8626 C   0  0  0  0  0  0  0  0  0  0  0  0
    0.0812    2.4562    0.4144 C   0  0  0  0  0  0  0  0  0  0  0  0
    0.8854    1.2755    0.2611 N   0  0  0  0  0  0  0  0  0  0  0  0
    0.3135    0.0617    0.4089 C   0  0  0  0  0  0  0  0  0  0  0  0
    1.0104   -1.0898    0.2786 C   0  0  0  0  0  0  0  0  0  0  0  0
    0.1849   -2.0968    0.4773 N   0  0  0  0  0  0  0  0  0  0  0  0
   -1.1043   -1.6391    0.7489 C   0  0  0  0  0  0  0  0  0  0  0  0
   -2.1860   -2.5121    1.1178 C   0  0  0  0  0  0  0  0  0  0  0  0
   -3.4429   -2.3794    1.0893 C   0  0  0  0  0  0  0  0  0  0  0  0
   -4.3065   -1.3215    0.6637 C   0  0  0  0  0  0  0  0  0  0  0  0
   -4.0492   -0.3160   -0.2289 C   0  0  0  0  0  0  0  0  0  0  0  0
   -4.9407    0.7055   -0.4991 C   0  0  0  0  0  0  0  0  0  0  0  0
   -4.6072    1.6883   -1.4134 O   0  0  0  0  0  0  0  0  0  0  0  0
   -3.4039    1.7560   -2.1251 C   0  0  0  0  0  0  0  0  0  0  0  0
   -6.1677    0.7874    0.1140 C   0  0  0  0  0  0  0  0  0  0  0  0
   -7.0725    1.8041   -0.1449 O   0  0  0  0  0  0  0  0  0  0  0  0
   -8.0166    1.5888   -1.2054 C   0  0  0  0  0  0  0  0  0  0  0  0
   -6.4647   -0.2054    1.0154 C   0  0  0  0  0  0  0  0  0  0  0  0
   -7.7162   -0.1506    1.6601 O   0  0  0  0  0  0  0  0  0  0  0  0
   -8.0259   -1.1694    2.5878 C   0  0  0  0  0  0  0  0  0  0  0  0
   -5.5792   -1.2141    1.2809 C   0  0  0  0  0  0  0  0  0  0  0  0
   -0.9682   -0.3236    0.6963 N   0  0  0  0  0  0  0  0  0  0  0  0
    2.3658   -0.9860   -0.0191 C   0  0  0  0  0  0  0  0  0  0  0  0
    2.9946   -2.0755   -0.1356 O   0  0  0  0  0  0  0  0  0  0  0  0
    2.9467    0.2095   -0.1685 N   0  0  0  0  0  0  0  0  0  0  0  0
    4.3574    0.2508   -0.4771 C   0  0  0  0  0  0  0  0  0  0  0  0
    5.1059    0.2905    0.8401 C   0  0  0  0  0  0  0  0  0  0  0  0
    6.5944    0.3351    0.5944 C   0  0  0  0  0  0  0  0  0  0  0  0
    2.2050    1.3153   -0.0276 C   0  0  0  0  0  0  0  0  0  0  0  0
    2.7357    2.4590   -0.1652 O   0  0  0  0  0  0  0  0  0  0  0  0
   -0.9147    4.3891    3.0903 H   0  0  0  0  0  0  0  0  0  0  0  0
   -0.2646    5.0301    1.5433 H   0  0  0  0  0  0  0  0  0  0  0  0
   -1.7489    4.0183    1.5433 H   0  0  0  0  0  0  0  0  0  0  0  0
    1.1015    3.1719    2.1708 H   0  0  0  0  0  0  0  0  0  0  0  0
   -0.3591    2.1500    2.4914 H   0  0  0  0  0  0  0  0  0  0  0  0
   -0.9500    2.2284    0.1065 H   0  0  0  0  0  0  0  0  0  0  0  0
    0.5117    3.2503   -0.2134 H   0  0  0  0  0  0  0  0  0  0  0  0
   -1.8540   -3.4885    1.5004 H   0  0  0  0  0  0  0  0  0  0  0  0
   -3.9836   -3.2583    1.4702 H   0  0  0  0  0  0  0  0  0  0  0  0
   -3.0847   -0.3211   -0.7577 H   0  0  0  0  0  0  0  0  0  0  0  0
   -2.5621    1.8033   -1.4185 H   0  0  0  0  0  0  0  0  0  0  0  0
   -3.3014    0.8622   -2.7581 H   0  0  0  0  0  0  0  0  0  0  0  0
   -3.4023    2.6556   -2.7581 H   0  0  0  0  0  0  0  0  0  0  0  0
   -9.0043    1.3635   -0.7768 H   0  0  0  0  0  0  0  0  0  0  0  0
   -8.0841    2.4946   -1.8258 H   0  0  0  0  0  0  0  0  0  0  0  0
   -7.6846    0.7433   -1.8258 H   0  0  0  0  0  0  0  0  0  0  0  0
   -7.9082   -0.7821    3.6106 H   0  0  0  0  0  0  0  0  0  0  0  0
   -9.0647   -1.4986    2.4377 H   0  0  0  0  0  0  0  0  0  0  0  0
   -7.3461   -2.0210    2.4377 H   0  0  0  0  0  0  0  0  0  0  0  0
   -5.8697   -1.9828    2.0120 H   0  0  0  0  0  0  0  0  0  0  0  0
   -1.7418    0.3378    0.8543 H   0  0  0  0  0  0  0  0  0  0  0  0
    4.6446   -0.6456   -1.0464 H   0  0  0  0  0  0  0  0  0  0  0  0
    4.5967    1.1338   -1.0878 H   0  0  0  0  0  0  0  0  0  0  0  0
    4.8038    1.1863    1.4025 H   0  0  0  0  0  0  0  0  0  0  0  0
    4.8649   -0.6148    1.4166 H   0  0  0  0  0  0  0  0  0  0  0  0
    7.1248    0.3510    1.5579 H   0  0  0  0  0  0  0  0  0  0  0  0
    6.8985   -0.5543    0.0230 H   0  0  0  0  0  0  0  0  0  0  0  0
    6.8448    1.2411    0.0230 H   0  0  0  0  0  0  0  0  0  0  0  0
  1  2  1  0
  2  3  1  0
  3  4  1  0
  4  5  1  0
  5  6  2  0
  6  7  1  0
  7  8  2  0
  8  9  1  0
  9 10  2  3
 10 11  1  0
 11 12  2  0
 12 13  1  0
 13 14  1  0
 14 15  1  0
 13 16  2  0
 16 17  1  0
 17 18  1  0
 16 19  1  0
 19 20  1  0
 20 21  1  0
 19 22  2  0
  8 23  1  0
  6 24  1  0
 24 25  2  0
 24 26  1  0
 26 27  1  0
 27 28  1  0
 28 29  1  0
 26 30  1  0
 30 31  2  0
 30  4  1  0
 23  5  1  0
 22 11  1  0
  1 32  1  0
  1 33  1  0
  1 34  1  0
  2 35  1  0
  2 36  1  0
  3 37  1  0
  3 38  1  0
  9 39  1  0
 10 40  1  0
 12 41  1  0
 15 42  1  0
 15 43  1  0
 15 44  1  0
 18 45  1  0
 18 46  1  0
 18 47  1  0
 21 48  1  0
 21 49  1  0
 21 50  1  0
 22 51  1  0
 23 52  1  0
 27 53  1  0
 27 54  1  0
 28 55  1  0
 28 56  1  0
 29 57  1  0
 29 58  1  0
 29 59  1  0
M  END
>  <Original_Name>  (41) 
CHEMBL77279

>  <ROSHAMBO_ComboTanimoto>  (41) 
0.937

>  <ROSHAMBO_ShapeTanimoto>  (41) 
0.673

>  <ROSHAMBO_ColorTanimoto>  (41) 
0.264

>  <ROSHAMBO_FitTverskyCombo>  (41) 
1.192

>  <ROSHAMBO_FitTversky>  (41) 
0.747

>  <ROSHAMBO_FitColorTversky>  (41) 
0.445

>  <ROSHAMBO_RefTverskyCombo>  (41) 
1.266

>  <ROSHAMBO_RefTversky>  (41) 
0.872

>  <ROSHAMBO_RefColorTversky>  (41) 
0.394

>  <ROSHAMBO_Overlap>  (41) 
1083.114

$$$$
CHEMBL124788_0_50
     RDKit          3D

 38 41  0  0  0  0  0  0  0  0999 V2000
    4.1582   -5.4077   -0.3512 C   0  0  0  0  0  0  0  0  0  0  0  0
    2.9035   -5.4462    0.4995 C   0  0  0  0  0  0  0  0  0  0  0  0
    2.4276   -4.0339    0.7954 C   0  0  0  0  0  0  0  0  0  0  0  0
    2.1256   -3.3310   -0.5271 C   0  0  0  0  0  0  0  0  0  0  0  0
    1.6589   -1.9458   -0.2348 C   0  0  0  0  0  0  0  0  0  0  0  0
    0.3268   -1.7340   -0.0576 N   0  0  0  0  0  0  0  0  0  0  0  0
   -0.1607   -0.5242    0.2060 C   0  0  0  0  0  0  0  0  0  0  0  0
   -1.3563    0.0471    0.4320 N   0  0  0  0  0  0  0  0  0  0  0  0
   -1.2183    1.3716    0.6500 C   0  0  0  0  0  0  0  0  0  0  0  0
    0.0950    1.6687    0.5641 N   0  0  0  0  0  0  0  0  0  0  0  0
    0.8119    0.5719    0.2962 C   0  0  0  0  0  0  0  0  0  0  0  0
    2.1459    0.2829    0.1052 C   0  0  0  0  0  0  0  0  0  0  0  0
    3.2490    1.0484    0.1237 N   0  0  0  0  0  0  0  0  0  0  0  0
    4.3400    0.3015   -0.1222 C   0  0  0  0  0  0  0  0  0  0  0  0
    5.6947    0.8200   -0.1735 C   0  0  0  0  0  0  0  0  0  0  0  0
    5.9031    2.1921    0.0452 C   0  0  0  0  0  0  0  0  0  0  0  0
    7.1292    2.7542    0.0150 C   0  0  0  0  0  0  0  0  0  0  0  0
    8.2197    1.9493   -0.2406 C   0  0  0  0  0  0  0  0  0  0  0  0
    8.0845    0.6081   -0.4616 C   0  0  0  0  0  0  0  0  0  0  0  0
    6.8002    0.0482   -0.4249 C   0  0  0  0  0  0  0  0  0  0  0  0
    6.6818   -1.6923   -0.7176 Cl  0  0  0  0  0  0  0  0  0  0  0  0
    3.8972   -0.9300   -0.2918 N   0  0  0  0  0  0  0  0  0  0  0  0
    2.5528   -0.9546   -0.1548 N   0  0  0  0  0  0  0  0  0  0  0  0
    5.0432   -5.3806    0.3015 H   0  0  0  0  0  0  0  0  0  0  0  0
    4.1983   -6.3051   -0.9862 H   0  0  0  0  0  0  0  0  0  0  0  0
    4.1433   -4.5096   -0.9862 H   0  0  0  0  0  0  0  0  0  0  0  0
    2.1145   -5.9899   -0.0407 H   0  0  0  0  0  0  0  0  0  0  0  0
    3.1282   -5.9557    1.4482 H   0  0  0  0  0  0  0  0  0  0  0  0
    1.5166   -4.0717    1.4109 H   0  0  0  0  0  0  0  0  0  0  0  0
    3.2065   -3.4831    1.3430 H   0  0  0  0  0  0  0  0  0  0  0  0
    3.0364   -3.2928   -1.1427 H   0  0  0  0  0  0  0  0  0  0  0  0
    1.3470   -3.8815   -1.0756 H   0  0  0  0  0  0  0  0  0  0  0  0
   -2.0313    2.0821    0.8602 H   0  0  0  0  0  0  0  0  0  0  0  0
    5.0327    2.8331    0.2490 H   0  0  0  0  0  0  0  0  0  0  0  0
    7.2567    3.8326    0.1907 H   0  0  0  0  0  0  0  0  0  0  0  0
    9.2234    2.3987   -0.2672 H   0  0  0  0  0  0  0  0  0  0  0  0
    8.9650   -0.0192   -0.6640 H   0  0  0  0  0  0  0  0  0  0  0  0
    4.4871   -1.7489   -0.4976 H   0  0  0  0  0  0  0  0  0  0  0  0
  1  2  1  0
  2  3  1  0
  3  4  1  0
  4  5  1  0
  5  6  2  0
  6  7  1  0
  7  8  2  0
  8  9  1  0
  9 10  2  0
 10 11  1  0
 11 12  2  0
 12 13  1  0
 13 14  2  0
 14 15  1  0
 15 16  2  0
 16 17  1  0
 17 18  2  0
 18 19  1  0
 19 20  2  0
 20 21  1  0
 14 22  1  0
 22 23  1  0
 23  5  1  0
 11  7  1  0
 23 12  1  0
 20 15  1  0
  1 24  1  0
  1 25  1  0
  1 26  1  0
  2 27  1  0
  2 28  1  0
  3 29  1  0
  3 30  1  0
  4 31  1  0
  4 32  1  0
  9 33  1  0
 16 34  1  0
 17 35  1  0
 18 36  1  0
 19 37  1  0
 22 38  1  0
M  END
>  <Original_Name>  (42) 
CHEMBL124788

>  <ROSHAMBO_ComboTanimoto>  (42) 
0.935

>  <ROSHAMBO_ShapeTanimoto>  (42) 
0.537

>  <ROSHAMBO_ColorTanimoto>  (42) 
0.398

>  <ROSHAMBO_FitTverskyCombo>  (42) 
1.346

>  <ROSHAMBO_FitTversky>  (42) 
0.732

>  <ROSHAMBO_FitColorTversky>  (42) 
0.613

>  <ROSHAMBO_RefTverskyCombo>  (42) 
1.2

>  <ROSHAMBO_RefTversky>  (42) 
0.669

>  <ROSHAMBO_RefColorTversky>  (42) 
0.532

>  <ROSHAMBO_Overlap>  (42) 
819.014

$$$$
CHEMBL483242_0_49
     RDKit          3D

 54 56  0  0  0  0  0  0  0  0999 V2000
    6.5764   -0.4854    1.2391 C   0  0  0  0  0  0  0  0  0  0  0  0
    6.0467   -0.4743   -0.1876 C   0  0  0  0  0  0  0  0  0  0  0  0
    4.6447   -0.1110   -0.1044 N   0  0  0  0  0  0  0  0  0  0  0  0
    3.6529   -1.1250    0.0406 C   0  0  0  0  0  0  0  0  0  0  0  0
    3.9760   -2.2587    0.4250 O   0  0  0  0  0  0  0  0  0  0  0  0
    2.2918   -0.7546   -0.2800 C   0  0  0  0  0  0  0  0  0  0  0  0
    2.0204    0.5248    0.5431 C   0  0  0  0  0  0  0  0  0  0  0  0
    0.6194    0.6012    0.4636 N   0  0  0  0  0  0  0  0  0  0  0  0
    0.1379   -0.5881    0.3122 C   0  0  0  0  0  0  0  0  0  0  0  0
   -1.2924   -0.9481    0.1902 C   0  0  0  0  0  0  0  0  0  0  0  0
   -2.1855    0.0180    0.2343 C   0  0  0  0  0  0  0  0  0  0  0  0
   -3.6028   -0.2402    0.1234 C   0  0  0  0  0  0  0  0  0  0  0  0
   -4.0895   -1.5336   -0.0366 C   0  0  0  0  0  0  0  0  0  0  0  0
   -5.4655   -1.7560   -0.1413 C   0  0  0  0  0  0  0  0  0  0  0  0
   -6.3245   -0.6832   -0.0841 C   0  0  0  0  0  0  0  0  0  0  0  0
   -7.7113   -0.8988   -0.1888 O   0  0  0  0  0  0  0  0  0  0  0  0
   -8.2189   -2.2171   -0.3522 C   0  0  0  0  0  0  0  0  0  0  0  0
   -5.8184    0.5870    0.0747 C   0  0  0  0  0  0  0  0  0  0  0  0
   -6.7691    1.6186    0.1222 O   0  0  0  0  0  0  0  0  0  0  0  0
   -6.4174    2.9672    0.2797 C   0  0  0  0  0  0  0  0  0  0  0  0
   -4.4770    0.8377    0.1802 C   0  0  0  0  0  0  0  0  0  0  0  0
    1.2202   -1.5303    0.2511 N   0  0  0  0  0  0  0  0  0  0  0  0
    1.2170   -2.8987    0.6283 C   0  0  0  0  0  0  0  0  0  0  0  0
    2.8156    1.5219   -0.0735 N   0  0  0  0  0  0  0  0  0  0  0  0
    2.2442    2.7348   -0.5840 C   0  0  0  0  0  0  0  0  0  0  0  0
    2.2441    3.7805    0.5155 C   0  0  0  0  0  0  0  0  0  0  0  0
    4.2137    1.2709   -0.1648 C   0  0  0  0  0  0  0  0  0  0  0  0
    5.0590    2.1879   -0.2928 O   0  0  0  0  0  0  0  0  0  0  0  0
    5.7320   -0.4676    1.9439 H   0  0  0  0  0  0  0  0  0  0  0  0
    7.1711   -1.3963    1.4023 H   0  0  0  0  0  0  0  0  0  0  0  0
    7.2090    0.3996    1.4023 H   0  0  0  0  0  0  0  0  0  0  0  0
    6.5954    0.2641   -0.7907 H   0  0  0  0  0  0  0  0  0  0  0  0
    6.1752   -1.4560   -0.6669 H   0  0  0  0  0  0  0  0  0  0  0  0
    2.2785   -0.7817   -1.3796 H   0  0  0  0  0  0  0  0  0  0  0  0
    2.2905    0.5972    1.6069 H   0  0  0  0  0  0  0  0  0  0  0  0
   -1.6014   -1.9964    0.0659 H   0  0  0  0  0  0  0  0  0  0  0  0
   -1.8418    1.0554    0.3597 H   0  0  0  0  0  0  0  0  0  0  0  0
   -3.3908   -2.3821   -0.0807 H   0  0  0  0  0  0  0  0  0  0  0  0
   -5.8566   -2.7763   -0.2680 H   0  0  0  0  0  0  0  0  0  0  0  0
   -8.3926   -2.6682    0.6359 H   0  0  0  0  0  0  0  0  0  0  0  0
   -9.1665   -2.1787   -0.9094 H   0  0  0  0  0  0  0  0  0  0  0  0
   -7.4902   -2.8241   -0.9094 H   0  0  0  0  0  0  0  0  0  0  0  0
   -6.3548    3.2071    1.3514 H   0  0  0  0  0  0  0  0  0  0  0  0
   -5.4417    3.1495   -0.1943 H   0  0  0  0  0  0  0  0  0  0  0  0
   -7.1798    3.6027   -0.1943 H   0  0  0  0  0  0  0  0  0  0  0  0
   -4.1018    1.8640    0.3065 H   0  0  0  0  0  0  0  0  0  0  0  0
    1.2168   -2.9766    1.7255 H   0  0  0  0  0  0  0  0  0  0  0  0
    0.3177   -3.3878    0.2258 H   0  0  0  0  0  0  0  0  0  0  0  0
    2.1140   -3.3921    0.2258 H   0  0  0  0  0  0  0  0  0  0  0  0
    2.8412    3.0943   -1.4351 H   0  0  0  0  0  0  0  0  0  0  0  0
    1.2135    2.5481   -0.9200 H   0  0  0  0  0  0  0  0  0  0  0  0
    2.2441    3.2817    1.4959 H   0  0  0  0  0  0  0  0  0  0  0  0
    3.1422    4.4090    0.4238 H   0  0  0  0  0  0  0  0  0  0  0  0
    1.3459    4.4089    0.4238 H   0  0  0  0  0  0  0  0  0  0  0  0
  1  2  1  0
  2  3  1  0
  3  4  1  0
  4  5  2  0
  4  6  1  0
  6  7  1  0
  7  8  1  0
  8  9  2  0
  9 10  1  0
 10 11  2  3
 11 12  1  0
 12 13  2  0
 13 14  1  0
 14 15  2  0
 15 16  1  0
 16 17  1  0
 15 18  1  0
 18 19  1  0
 19 20  1  0
 18 21  2  0
  9 22  1  0
 22 23  1  0
  7 24  1  0
 24 25  1  0
 25 26  1  0
 24 27  1  0
 27 28  2  0
 27  3  1  0
 22  6  1  0
 21 12  1  0
  1 29  1  0
  1 30  1  0
  1 31  1  0
  2 32  1  0
  2 33  1  0
  6 34  1  0
  7 35  1  0
 10 36  1  0
 11 37  1  0
 13 38  1  0
 14 39  1  0
 17 40  1  0
 17 41  1  0
 17 42  1  0
 20 43  1  0
 20 44  1  0
 20 45  1  0
 21 46  1  0
 23 47  1  0
 23 48  1  0
 23 49  1  0
 25 50  1  0
 25 51  1  0
 26 52  1  0
 26 53  1  0
 26 54  1  0
M  END
>  <Original_Name>  (43) 
CHEMBL483242

>  <ROSHAMBO_ComboTanimoto>  (43) 
0.93

>  <ROSHAMBO_ShapeTanimoto>  (43) 
0.628

>  <ROSHAMBO_ColorTanimoto>  (43) 
0.303

>  <ROSHAMBO_FitTverskyCombo>  (43) 
1.352

>  <ROSHAMBO_FitTversky>  (43) 
0.751

>  <ROSHAMBO_FitColorTversky>  (43) 
0.601

>  <ROSHAMBO_RefTverskyCombo>  (43) 
1.172

>  <ROSHAMBO_RefTversky>  (43) 
0.793

>  <ROSHAMBO_RefColorTversky>  (43) 
0.378

>  <ROSHAMBO_Overlap>  (43) 
979.307

$$$$
CHEMBL106265_0_40
     RDKit          3D

 34 36  0  0  0  0  0  0  0  0999 V2000
    1.7185   -3.1668   -0.2313 C   0  0  0  0  0  0  0  0  0  0  0  0
    1.4041   -1.7853    0.0239 N   0  0  0  0  0  0  0  0  0  0  0  0
    0.1384   -1.3736   -0.0193 C   0  0  0  0  0  0  0  0  0  0  0  0
   -0.1396   -0.0491    0.2278 C   0  0  0  0  0  0  0  0  0  0  0  0
   -1.4578    0.1315    0.1311 N   0  0  0  0  0  0  0  0  0  0  0  0
   -2.0399   -1.0395   -0.1716 C   0  0  0  0  0  0  0  0  0  0  0  0
   -3.5033   -1.2093   -0.3558 C   0  0  0  0  0  0  0  0  0  0  0  0
   -4.0630   -0.3658   -1.4471 C   0  0  0  0  0  0  0  0  0  0  0  0
   -5.3266    0.2782   -0.9353 C   0  0  0  0  0  0  0  0  0  0  0  0
   -5.6341   -0.4632    0.3516 C   0  0  0  0  0  0  0  0  0  0  0  0
   -4.2715   -0.8889    0.9038 C   0  0  0  0  0  0  0  0  0  0  0  0
   -1.0687   -1.9474   -0.2615 N   0  0  0  0  0  0  0  0  0  0  0  0
    0.9041    0.8071    0.5120 C   0  0  0  0  0  0  0  0  0  0  0  0
    0.6913    2.0256    0.7437 O   0  0  0  0  0  0  0  0  0  0  0  0
    2.1790    0.3811    0.5532 N   0  0  0  0  0  0  0  0  0  0  0  0
    3.2683    1.3060    0.8563 C   0  0  0  0  0  0  0  0  0  0  0  0
    2.4006   -0.9297    0.3032 C   0  0  0  0  0  0  0  0  0  0  0  0
    3.5959   -1.3157    0.3447 O   0  0  0  0  0  0  0  0  0  0  0  0
    1.8394   -3.6979    0.7244 H   0  0  0  0  0  0  0  0  0  0  0  0
    0.9025   -3.6284   -0.8066 H   0  0  0  0  0  0  0  0  0  0  0  0
    2.6540   -3.2297   -0.8066 H   0  0  0  0  0  0  0  0  0  0  0  0
   -3.6230   -2.2696   -0.6232 H   0  0  0  0  0  0  0  0  0  0  0  0
   -3.3363    0.4101   -1.7295 H   0  0  0  0  0  0  0  0  0  0  0  0
   -4.2788   -0.9805   -2.3334 H   0  0  0  0  0  0  0  0  0  0  0  0
   -5.1658    1.3485   -0.7388 H   0  0  0  0  0  0  0  0  0  0  0  0
   -6.1511    0.2180   -1.6608 H   0  0  0  0  0  0  0  0  0  0  0  0
   -6.1498    0.1977    1.0639 H   0  0  0  0  0  0  0  0  0  0  0  0
   -6.2968   -1.3246    0.1819 H   0  0  0  0  0  0  0  0  0  0  0  0
   -3.7951   -0.0712    1.4645 H   0  0  0  0  0  0  0  0  0  0  0  0
   -4.3251   -1.7274    1.6138 H   0  0  0  0  0  0  0  0  0  0  0  0
   -1.2128   -2.9429   -0.4831 H   0  0  0  0  0  0  0  0  0  0  0  0
    3.3777    1.3988    1.9469 H   0  0  0  0  0  0  0  0  0  0  0  0
    4.2050    0.9231    0.4252 H   0  0  0  0  0  0  0  0  0  0  0  0
    3.0425    2.2924    0.4252 H   0  0  0  0  0  0  0  0  0  0  0  0
  1  2  1  0
  2  3  1  0
  3  4  2  0
  4  5  1  0
  5  6  2  0
  6  7  1  0
  7  8  1  0
  8  9  1  0
  9 10  1  0
 10 11  1  0
  6 12  1  0
  4 13  1  0
 13 14  2  0
 13 15  1  0
 15 16  1  0
 15 17  1  0
 17 18  2  0
 17  2  1  0
 12  3  1  0
 11  7  1  0
  1 19  1  0
  1 20  1  0
  1 21  1  0
  7 22  1  0
  8 23  1  0
  8 24  1  0
  9 25  1  0
  9 26  1  0
 10 27  1  0
 10 28  1  0
 11 29  1  0
 11 30  1  0
 12 31  1  0
 16 32  1  0
 16 33  1  0
 16 34  1  0
M  END
>  <Original_Name>  (44) 
CHEMBL106265

>  <ROSHAMBO_ComboTanimoto>  (44) 
0.928

>  <ROSHAMBO_ShapeTanimoto>  (44) 
0.607

>  <ROSHAMBO_ColorTanimoto>  (44) 
0.321

>  <ROSHAMBO_FitTverskyCombo>  (44) 
1.519

>  <ROSHAMBO_FitTversky>  (44) 
0.89

>  <ROSHAMBO_FitColorTversky>  (44) 
0.629

>  <ROSHAMBO_RefTverskyCombo>  (44) 
1.052

>  <ROSHAMBO_RefTversky>  (44) 
0.657

>  <ROSHAMBO_RefColorTversky>  (44) 
0.396

>  <ROSHAMBO_Overlap>  (44) 
796.461

$$$$
CHEMBL257982_0_4
     RDKit          3D

 37 40  0  0  0  0  0  0  0  0999 V2000
    0.7200    3.6262    1.2828 N   0  0  0  0  0  0  0  0  0  0  0  0
    0.8205    2.2482    0.9448 C   0  0  0  0  0  0  0  0  0  0  0  0
    2.0257    1.7855    0.5417 N   0  0  0  0  0  0  0  0  0  0  0  0
    2.2337    0.5056    0.1994 C   0  0  0  0  0  0  0  0  0  0  0  0
    3.5299    0.0087   -0.2340 C   0  0  0  0  0  0  0  0  0  0  0  0
    4.5695    0.9136   -0.2854 C   0  0  0  0  0  0  0  0  0  0  0  0
    5.8423    0.5354   -0.6861 C   0  0  0  0  0  0  0  0  0  0  0  0
    6.0780   -0.7779   -1.0428 C   0  0  0  0  0  0  0  0  0  0  0  0
    5.0239   -1.6583   -0.9822 C   0  0  0  0  0  0  0  0  0  0  0  0
    3.7930   -1.2543   -0.5861 N   0  0  0  0  0  0  0  0  0  0  0  0
    1.1289   -0.3511    0.2779 C   0  0  0  0  0  0  0  0  0  0  0  0
    0.9351   -1.6720    0.0257 C   0  0  0  0  0  0  0  0  0  0  0  0
   -0.3557   -1.9396    0.2840 N   0  0  0  0  0  0  0  0  0  0  0  0
   -1.0134   -0.8724    0.6891 N   0  0  0  0  0  0  0  0  0  0  0  0
   -2.3974   -0.7704    1.0545 C   0  0  0  0  0  0  0  0  0  0  0  0
   -3.2841   -0.4403   -0.0612 C   0  0  0  0  0  0  0  0  0  0  0  0
   -2.8714   -0.2372   -1.3608 C   0  0  0  0  0  0  0  0  0  0  0  0
   -3.7922    0.0760   -2.3680 C   0  0  0  0  0  0  0  0  0  0  0  0
   -5.1266    0.1858   -2.0736 C   0  0  0  0  0  0  0  0  0  0  0  0
   -5.5574   -0.0143   -0.7775 C   0  0  0  0  0  0  0  0  0  0  0  0
   -4.6341   -0.3218    0.1991 C   0  0  0  0  0  0  0  0  0  0  0  0
   -5.1187   -0.5079    1.4583 F   0  0  0  0  0  0  0  0  0  0  0  0
   -0.0928    0.1381    0.6911 C   0  0  0  0  0  0  0  0  0  0  0  0
   -0.2520    1.4230    1.0225 N   0  0  0  0  0  0  0  0  0  0  0  0
   -0.1812    4.0157    1.5942 H   0  0  0  0  0  0  0  0  0  0  0  0
    1.5485    4.2346    1.2162 H   0  0  0  0  0  0  0  0  0  0  0  0
    4.3848    1.9603   -0.0019 H   0  0  0  0  0  0  0  0  0  0  0  0
    6.6563    1.2744   -0.7194 H   0  0  0  0  0  0  0  0  0  0  0  0
    7.0765   -1.1086   -1.3648 H   0  0  0  0  0  0  0  0  0  0  0  0
    5.1829   -2.7105   -1.2606 H   0  0  0  0  0  0  0  0  0  0  0  0
    1.6931   -2.3881   -0.3245 H   0  0  0  0  0  0  0  0  0  0  0  0
   -2.7160   -1.7353    1.4758 H   0  0  0  0  0  0  0  0  0  0  0  0
   -2.4757    0.0541    1.7784 H   0  0  0  0  0  0  0  0  0  0  0  0
   -1.8034   -0.3224   -1.6101 H   0  0  0  0  0  0  0  0  0  0  0  0
   -3.4436    0.2345   -3.3992 H   0  0  0  0  0  0  0  0  0  0  0  0
   -5.8496    0.4318   -2.8653 H   0  0  0  0  0  0  0  0  0  0  0  0
   -6.6251    0.0706   -0.5268 H   0  0  0  0  0  0  0  0  0  0  0  0
  1  2  1  0
  2  3  2  0
  3  4  1  0
  4  5  1  0
  5  6  2  0
  6  7  1  0
  7  8  2  0
  8  9  1  0
  9 10  2  0
  4 11  2  0
 11 12  1  0
 12 13  2  0
 13 14  1  0
 14 15  1  0
 15 16  1  0
 16 17  2  0
 17 18  1  0
 18 19  2  0
 19 20  1  0
 20 21  2  0
 21 22  1  0
 14 23  1  0
 23 24  2  0
 24  2  1  0
 10  5  1  0
 23 11  1  0
 21 16  1  0
  1 25  1  0
  1 26  1  0
  6 27  1  0
  7 28  1  0
  8 29  1  0
  9 30  1  0
 12 31  1  0
 15 32  1  0
 15 33  1  0
 17 34  1  0
 18 35  1  0
 19 36  1  0
 20 37  1  0
M  END
>  <Original_Name>  (45) 
CHEMBL257982

>  <ROSHAMBO_ComboTanimoto>  (45) 
0.928

>  <ROSHAMBO_ShapeTanimoto>  (45) 
0.634

>  <ROSHAMBO_ColorTanimoto>  (45) 
0.294

>  <ROSHAMBO_FitTverskyCombo>  (45) 
1.309

>  <ROSHAMBO_FitTversky>  (45) 
0.792

>  <ROSHAMBO_FitColorTversky>  (45) 
0.517

>  <ROSHAMBO_RefTverskyCombo>  (45) 
1.165

>  <ROSHAMBO_RefTversky>  (45) 
0.76

>  <ROSHAMBO_RefColorTversky>  (45) 
0.406

>  <ROSHAMBO_Overlap>  (45) 
932.796

$$$$
CHEMBL506250_0_32
     RDKit          3D

 28 30  0  0  0  0  0  0  0  0999 V2000
   -2.2703   -0.1007   -0.1468 N   0  0  0  0  0  0  0  0  0  0  0  0
   -0.9611   -0.0694    0.0167 C   0  0  0  0  0  0  0  0  0  0  0  0
    0.5179   -0.0241    0.2231 C   0  0  0  0  0  0  0  0  0  0  0  0
    1.0626   -1.2719   -0.0886 C   0  0  0  0  0  0  0  0  0  0  0  0
    0.1850   -2.4607    0.0900 C   0  0  0  0  0  0  0  0  0  0  0  0
   -0.1557   -3.6851   -0.2116 C   0  0  0  0  0  0  0  0  0  0  0  0
   -1.2958   -4.1313    0.5569 C   0  0  0  0  0  0  0  0  0  0  0  0
   -1.5945   -3.0195    1.3436 C   0  0  0  0  0  0  0  0  0  0  0  0
   -0.7895   -2.1511    1.0548 O   0  0  0  0  0  0  0  0  0  0  0  0
    2.4277   -1.2688   -0.2570 C   0  0  0  0  0  0  0  0  0  0  0  0
    3.1134   -0.1131   -0.0953 C   0  0  0  0  0  0  0  0  0  0  0  0
    4.6043    0.0122   -0.1983 C   0  0  0  0  0  0  0  0  0  0  0  0
    5.6041   -0.6613   -0.5942 C   0  0  0  0  0  0  0  0  0  0  0  0
    6.8548    0.0028   -0.4404 C   0  0  0  0  0  0  0  0  0  0  0  0
    6.3272    1.3045    0.1913 C   0  0  0  0  0  0  0  0  0  0  0  0
    5.1356    1.2021    0.2614 O   0  0  0  0  0  0  0  0  0  0  0  0
    2.5029    1.1246    0.2324 N   0  0  0  0  0  0  0  0  0  0  0  0
    1.1171    1.1446    0.3913 C   0  0  0  0  0  0  0  0  0  0  0  0
    0.5927    2.4533    0.5040 N   0  0  0  0  0  0  0  0  0  0  0  0
    0.3624   -4.3023   -0.9604 H   0  0  0  0  0  0  0  0  0  0  0  0
   -1.8027   -5.1072    0.5282 H   0  0  0  0  0  0  0  0  0  0  0  0
   -2.4037   -2.9409    2.0846 H   0  0  0  0  0  0  0  0  0  0  0  0
    2.9570   -2.1964   -0.5205 H   0  0  0  0  0  0  0  0  0  0  0  0
    5.5128   -1.6715   -1.0197 H   0  0  0  0  0  0  0  0  0  0  0  0
    7.8772   -0.3146   -0.6934 H   0  0  0  0  0  0  0  0  0  0  0  0
    6.9301    2.1652    0.5165 H   0  0  0  0  0  0  0  0  0  0  0  0
   -0.4204    2.5934    0.6253 H   0  0  0  0  0  0  0  0  0  0  0  0
    1.2241    3.2662    0.4648 H   0  0  0  0  0  0  0  0  0  0  0  0
  1  2  3  0
  2  3  1  0
  3  4  2  0
  4  5  1  0
  5  6  2  0
  6  7  1  0
  7  8  2  0
  8  9  1  0
  4 10  1  0
 10 11  2  0
 11 12  1  0
 12 13  2  0
 13 14  1  0
 14 15  2  0
 15 16  1  0
 11 17  1  0
 17 18  2  0
 18 19  1  0
 18  3  1  0
  9  5  1  0
 16 12  1  0
  6 20  1  0
  7 21  1  0
  8 22  1  0
 10 23  1  0
 13 24  1  0
 14 25  1  0
 15 26  1  0
 19 27  1  0
 19 28  1  0
M  END
>  <Original_Name>  (46) 
CHEMBL506250

>  <ROSHAMBO_ComboTanimoto>  (46) 
0.927

>  <ROSHAMBO_ShapeTanimoto>  (46) 
0.574

>  <ROSHAMBO_ColorTanimoto>  (46) 
0.353

>  <ROSHAMBO_FitTverskyCombo>  (46) 
1.496

>  <ROSHAMBO_FitTversky>  (46) 
0.837

>  <ROSHAMBO_FitColorTversky>  (46) 
0.659

>  <ROSHAMBO_RefTverskyCombo>  (46) 
1.077

>  <ROSHAMBO_RefTversky>  (46) 
0.646

>  <ROSHAMBO_RefColorTversky>  (46) 
0.431

>  <ROSHAMBO_Overlap>  (46) 
785.048

$$$$
CHEMBL178435_0_33
     RDKit          3D

 37 40  0  0  0  0  0  0  0  0999 V2000
    6.9552    1.1569    0.2978 C   0  0  0  0  0  0  0  0  0  0  0  0
    5.7512    0.3237    0.1025 C   0  0  0  0  0  0  0  0  0  0  0  0
    5.7986   -0.9795   -0.3307 C   0  0  0  0  0  0  0  0  0  0  0  0
    4.6361   -1.7044   -0.4930 C   0  0  0  0  0  0  0  0  0  0  0  0
    3.3809   -1.1635   -0.2315 C   0  0  0  0  0  0  0  0  0  0  0  0
    2.0210   -1.7159   -0.3238 C   0  0  0  0  0  0  0  0  0  0  0  0
    1.1488   -0.5918    0.1048 C   0  0  0  0  0  0  0  0  0  0  0  0
   -0.2210   -0.4815    0.2317 C   0  0  0  0  0  0  0  0  0  0  0  0
   -1.1152   -1.6308   -0.0883 C   0  0  0  0  0  0  0  0  0  0  0  0
   -1.5035   -1.5725   -1.5494 C   0  0  0  0  0  0  0  0  0  0  0  0
   -2.9771   -1.3091   -1.4756 C   0  0  0  0  0  0  0  0  0  0  0  0
   -3.1682   -0.8391   -0.0382 C   0  0  0  0  0  0  0  0  0  0  0  0
   -5.0021   -1.2954    0.4513 Br  0  0  0  0  0  0  0  0  0  0  0  0
   -2.2624   -1.6130    0.6637 O   0  0  0  0  0  0  0  0  0  0  0  0
   -0.7266    0.6882    0.6511 N   0  0  0  0  0  0  0  0  0  0  0  0
    0.0104    1.7699    0.9593 C   0  0  0  0  0  0  0  0  0  0  0  0
   -0.5731    2.9784    1.3967 N   0  0  0  0  0  0  0  0  0  0  0  0
    1.3555    1.6335    0.8254 N   0  0  0  0  0  0  0  0  0  0  0  0
    1.9431    0.4981    0.4119 C   0  0  0  0  0  0  0  0  0  0  0  0
    3.3634    0.1433    0.2009 C   0  0  0  0  0  0  0  0  0  0  0  0
    4.5239    0.8692    0.3637 C   0  0  0  0  0  0  0  0  0  0  0  0
    7.1414    1.2857    1.3742 H   0  0  0  0  0  0  0  0  0  0  0  0
    7.8216    0.6642   -0.1678 H   0  0  0  0  0  0  0  0  0  0  0  0
    6.7994    2.1413   -0.1678 H   0  0  0  0  0  0  0  0  0  0  0  0
    6.7697   -1.4478   -0.5495 H   0  0  0  0  0  0  0  0  0  0  0  0
    4.7037   -2.7456   -0.8411 H   0  0  0  0  0  0  0  0  0  0  0  0
    1.7907   -2.0184   -1.3560 H   0  0  0  0  0  0  0  0  0  0  0  0
    1.8861   -2.6165    0.2931 H   0  0  0  0  0  0  0  0  0  0  0  0
   -0.5618   -2.5537    0.1395 H   0  0  0  0  0  0  0  0  0  0  0  0
   -0.9783   -0.7578   -2.0693 H   0  0  0  0  0  0  0  0  0  0  0  0
   -1.2454   -2.4822   -2.1113 H   0  0  0  0  0  0  0  0  0  0  0  0
   -3.2756   -0.5279   -2.1902 H   0  0  0  0  0  0  0  0  0  0  0  0
   -3.5884   -2.1875   -1.7299 H   0  0  0  0  0  0  0  0  0  0  0  0
   -3.0132    0.2350    0.1417 H   0  0  0  0  0  0  0  0  0  0  0  0
    0.0242    3.7862    1.6238 H   0  0  0  0  0  0  0  0  0  0  0  0
   -1.5963    3.0526    1.4888 H   0  0  0  0  0  0  0  0  0  0  0  0
    4.4619    1.9109    0.7116 H   0  0  0  0  0  0  0  0  0  0  0  0
  1  2  1  0
  2  3  2  0
  3  4  1  0
  4  5  2  0
  5  6  1  0
  6  7  1  0
  7  8  2  0
  8  9  1  0
  9 10  1  0
 10 11  1  0
 11 12  1  0
 12 13  1  0
 12 14  1  0
  8 15  1  0
 15 16  2  0
 16 17  1  0
 16 18  1  0
 18 19  2  0
 19 20  1  0
 20 21  2  0
 21  2  1  0
 20  5  1  0
 19  7  1  0
 14  9  1  0
  1 22  1  0
  1 23  1  0
  1 24  1  0
  3 25  1  0
  4 26  1  0
  6 27  1  0
  6 28  1  0
  9 29  1  0
 10 30  1  0
 10 31  1  0
 11 32  1  0
 11 33  1  0
 12 34  1  0
 17 35  1  0
 17 36  1  0
 21 37  1  0
M  END
>  <Original_Name>  (47) 
CHEMBL178435

>  <ROSHAMBO_ComboTanimoto>  (47) 
0.922

>  <ROSHAMBO_ShapeTanimoto>  (47) 
0.659

>  <ROSHAMBO_ColorTanimoto>  (47) 
0.264

>  <ROSHAMBO_FitTverskyCombo>  (47) 
1.34

>  <ROSHAMBO_FitTversky>  (47) 
0.875

>  <ROSHAMBO_FitColorTversky>  (47) 
0.465

>  <ROSHAMBO_RefTverskyCombo>  (47) 
1.106

>  <ROSHAMBO_RefTversky>  (47) 
0.727

>  <ROSHAMBO_RefColorTversky>  (47) 
0.379

>  <ROSHAMBO_Overlap>  (47) 
886.295

$$$$
CHEMBL81616_0_93
     RDKit          3D

 45 47  0  0  0  0  0  0  0  0999 V2000
   -0.9737    3.6480   -3.7449 C   0  0  0  0  0  0  0  0  0  0  0  0
   -0.1146    3.2172   -2.5798 C   0  0  0  0  0  0  0  0  0  0  0  0
   -0.1492    2.0433   -2.2327 O   0  0  0  0  0  0  0  0  0  0  0  0
    0.7054    4.1287   -1.9054 N   0  0  0  0  0  0  0  0  0  0  0  0
    1.5725    3.9420   -0.8037 C   0  0  0  0  0  0  0  0  0  0  0  0
    0.9521    3.4911    0.4575 C   0  0  0  0  0  0  0  0  0  0  0  0
    0.3617    2.1677    0.4081 N   0  0  0  0  0  0  0  0  0  0  0  0
    1.2253    1.0144    0.3279 C   0  0  0  0  0  0  0  0  0  0  0  0
    0.6805   -0.2420    0.2804 C   0  0  0  0  0  0  0  0  0  0  0  0
   -0.6042   -0.7594    0.2887 C   0  0  0  0  0  0  0  0  0  0  0  0
   -1.8737   -0.0185    0.3586 C   0  0  0  0  0  0  0  0  0  0  0  0
   -0.4830   -2.1525    0.2168 C   0  0  0  0  0  0  0  0  0  0  0  0
   -1.6226   -3.1299    0.1988 C   0  0  0  0  0  0  0  0  0  0  0  0
    0.7973   -2.4899    0.1664 N   0  0  0  0  0  0  0  0  0  0  0  0
    1.5171   -1.3704    0.2026 C   0  0  0  0  0  0  0  0  0  0  0  0
    2.8285   -1.1312    0.1797 N   0  0  0  0  0  0  0  0  0  0  0  0
    3.3825    0.0909    0.2253 C   0  0  0  0  0  0  0  0  0  0  0  0
    2.5607    1.1428    0.2989 N   0  0  0  0  0  0  0  0  0  0  0  0
    4.8308    0.2094    0.1928 C   0  0  0  0  0  0  0  0  0  0  0  0
    5.6480   -0.8970    0.1169 C   0  0  0  0  0  0  0  0  0  0  0  0
    7.0132   -0.8344    0.0838 C   0  0  0  0  0  0  0  0  0  0  0  0
    7.6008    0.4091    0.1293 C   0  0  0  0  0  0  0  0  0  0  0  0
    6.8152    1.5619    0.2067 C   0  0  0  0  0  0  0  0  0  0  0  0
    5.4387    1.4490    0.2376 C   0  0  0  0  0  0  0  0  0  0  0  0
   -1.8974    4.1112   -3.3678 H   0  0  0  0  0  0  0  0  0  0  0  0
   -0.4221    4.3762   -4.3577 H   0  0  0  0  0  0  0  0  0  0  0  0
   -1.2273    2.7704   -4.3577 H   0  0  0  0  0  0  0  0  0  0  0  0
    0.6721    5.0913   -2.2703 H   0  0  0  0  0  0  0  0  0  0  0  0
    2.3229    3.1917   -1.0933 H   0  0  0  0  0  0  0  0  0  0  0  0
    1.9817    4.9393   -0.5849 H   0  0  0  0  0  0  0  0  0  0  0  0
    1.7269    3.4907    1.2384 H   0  0  0  0  0  0  0  0  0  0  0  0
    0.1275    4.1895    0.6629 H   0  0  0  0  0  0  0  0  0  0  0  0
   -0.6616    2.0523    0.4299 H   0  0  0  0  0  0  0  0  0  0  0  0
   -2.1475    0.1414    1.4119 H   0  0  0  0  0  0  0  0  0  0  0  0
   -1.7585    0.9542   -0.1420 H   0  0  0  0  0  0  0  0  0  0  0  0
   -2.6640   -0.5971   -0.1420 H   0  0  0  0  0  0  0  0  0  0  0  0
   -1.9104   -3.3767    1.2313 H   0  0  0  0  0  0  0  0  0  0  0  0
   -2.4809   -2.6828   -0.3242 H   0  0  0  0  0  0  0  0  0  0  0  0
   -1.3115   -4.0463   -0.3242 H   0  0  0  0  0  0  0  0  0  0  0  0
    1.1698   -3.4485    0.1093 H   0  0  0  0  0  0  0  0  0  0  0  0
    5.1742   -1.8891    0.0807 H   0  0  0  0  0  0  0  0  0  0  0  0
    7.6222   -1.7484    0.0228 H   0  0  0  0  0  0  0  0  0  0  0  0
    8.6971    0.4961    0.1046 H   0  0  0  0  0  0  0  0  0  0  0  0
    7.2899    2.5536    0.2429 H   0  0  0  0  0  0  0  0  0  0  0  0
    4.8199    2.3563    0.2985 H   0  0  0  0  0  0  0  0  0  0  0  0
  1  2  1  0
  2  3  2  0
  2  4  1  0
  4  5  1  0
  5  6  1  0
  6  7  1  0
  7  8  1  0
  8  9  2  0
  9 10  1  0
 10 11  1  0
 10 12  2  0
 12 13  1  0
 12 14  1  0
 14 15  1  0
 15 16  2  0
 16 17  1  0
 17 18  2  0
 17 19  1  0
 19 20  2  0
 20 21  1  0
 21 22  2  0
 22 23  1  0
 23 24  2  0
 18  8  1  0
 24 19  1  0
 15  9  1  0
  1 25  1  0
  1 26  1  0
  1 27  1  0
  4 28  1  0
  5 29  1  0
  5 30  1  0
  6 31  1  0
  6 32  1  0
  7 33  1  0
 11 34  1  0
 11 35  1  0
 11 36  1  0
 13 37  1  0
 13 38  1  0
 13 39  1  0
 14 40  1  0
 20 41  1  0
 21 42  1  0
 22 43  1  0
 23 44  1  0
 24 45  1  0
M  END
>  <Original_Name>  (48) 
CHEMBL81616

>  <ROSHAMBO_ComboTanimoto>  (48) 
0.919

>  <ROSHAMBO_ShapeTanimoto>  (48) 
0.538

>  <ROSHAMBO_ColorTanimoto>  (48) 
0.381

>  <ROSHAMBO_FitTverskyCombo>  (48) 
1.404

>  <ROSHAMBO_FitTversky>  (48) 
0.726

>  <ROSHAMBO_FitColorTversky>  (48) 
0.678

>  <ROSHAMBO_RefTverskyCombo>  (48) 
1.14

>  <ROSHAMBO_RefTversky>  (48) 
0.675

>  <ROSHAMBO_RefColorTversky>  (48) 
0.465

>  <ROSHAMBO_Overlap>  (48) 
826.842

$$$$
CHEMBL312449_0_40
     RDKit          3D

 27 29  0  0  0  0  0  0  0  0999 V2000
    3.0730   -3.6067   -2.2152 C   0  0  0  0  0  0  0  0  0  0  0  0
    2.8211   -3.3468   -0.7474 C   0  0  0  0  0  0  0  0  0  0  0  0
    2.0199   -2.1595   -0.4580 C   0  0  0  0  0  0  0  0  0  0  0  0
    0.6388   -2.1922   -0.3357 N   0  0  0  0  0  0  0  0  0  0  0  0
    0.1729   -1.0167   -0.0731 N   0  0  0  0  0  0  0  0  0  0  0  0
    1.2203   -0.1593   -0.0110 C   0  0  0  0  0  0  0  0  0  0  0  0
    2.3343   -0.8779   -0.2498 N   0  0  0  0  0  0  0  0  0  0  0  0
    3.5458   -0.2445   -0.2464 C   0  0  0  0  0  0  0  0  0  0  0  0
    4.6989   -0.9347   -0.4962 C   0  0  0  0  0  0  0  0  0  0  0  0
    5.9246   -0.2484   -0.4916 C   0  0  0  0  0  0  0  0  0  0  0  0
    7.3708   -1.1451   -0.8096 Cl  0  0  0  0  0  0  0  0  0  0  0  0
    5.9403    1.1012   -0.2374 C   0  0  0  0  0  0  0  0  0  0  0  0
    7.4563    1.9712   -0.2269 Cl  0  0  0  0  0  0  0  0  0  0  0  0
    4.7846    1.7941    0.0120 C   0  0  0  0  0  0  0  0  0  0  0  0
    3.5545    1.1332    0.0130 C   0  0  0  0  0  0  0  0  0  0  0  0
    2.4303    1.8306    0.2504 N   0  0  0  0  0  0  0  0  0  0  0  0
    1.2621    1.1869    0.2385 C   0  0  0  0  0  0  0  0  0  0  0  0
    0.0405    1.9198    0.4908 N   0  0  0  0  0  0  0  0  0  0  0  0
    3.8349   -4.3928   -2.3229 H   0  0  0  0  0  0  0  0  0  0  0  0
    2.1388   -3.9333   -2.6954 H   0  0  0  0  0  0  0  0  0  0  0  0
    3.4287   -2.6832   -2.6954 H   0  0  0  0  0  0  0  0  0  0  0  0
    2.2986   -4.2206   -0.3311 H   0  0  0  0  0  0  0  0  0  0  0  0
    3.8073   -3.1696   -0.2934 H   0  0  0  0  0  0  0  0  0  0  0  0
    4.6674   -2.0155   -0.6985 H   0  0  0  0  0  0  0  0  0  0  0  0
    4.8261    2.8750    0.2123 H   0  0  0  0  0  0  0  0  0  0  0  0
   -0.8652    1.4294    0.4832 H   0  0  0  0  0  0  0  0  0  0  0  0
    0.0766    2.9320    0.6780 H   0  0  0  0  0  0  0  0  0  0  0  0
  1  2  1  0
  2  3  1  0
  3  4  2  0
  4  5  1  0
  5  6  2  0
  6  7  1  0
  7  8  1  0
  8  9  2  0
  9 10  1  0
 10 11  1  0
 10 12  2  0
 12 13  1  0
 12 14  1  0
 14 15  2  0
 15 16  1  0
 16 17  2  0
 17 18  1  0
  7  3  1  0
 15  8  1  0
 17  6  1  0
  1 19  1  0
  1 20  1  0
  1 21  1  0
  2 22  1  0
  2 23  1  0
  9 24  1  0
 14 25  1  0
 18 26  1  0
 18 27  1  0
M  END
>  <Original_Name>  (49) 
CHEMBL312449

>  <ROSHAMBO_ComboTanimoto>  (49) 
0.917

>  <ROSHAMBO_ShapeTanimoto>  (49) 
0.516

>  <ROSHAMBO_ColorTanimoto>  (49) 
0.4

>  <ROSHAMBO_FitTverskyCombo>  (49) 
1.475

>  <ROSHAMBO_FitTversky>  (49) 
0.811

>  <ROSHAMBO_FitColorTversky>  (49) 
0.664

>  <ROSHAMBO_RefTverskyCombo>  (49) 
1.089

>  <ROSHAMBO_RefTversky>  (49) 
0.587

>  <ROSHAMBO_RefColorTversky>  (49) 
0.502

>  <ROSHAMBO_Overlap>  (49) 
711.279

$$$$
CHEMBL92906_0_17
     RDKit          3D

 49 50  0  0  0  0  0  0  0  0999 V2000
    0.5011    4.4420   -0.2347 C   0  0  0  0  0  0  0  0  0  0  0  0
    1.0512    3.0664   -0.5252 C   0  0  0  0  0  0  0  0  0  0  0  0
    1.2204    2.3554    0.8145 C   0  0  0  0  0  0  0  0  0  0  0  0
    1.7586    1.0186    0.5904 N   0  0  0  0  0  0  0  0  0  0  0  0
    0.8983    0.0048    0.4256 C   0  0  0  0  0  0  0  0  0  0  0  0
    1.4910   -1.2455    0.1961 C   0  0  0  0  0  0  0  0  0  0  0  0
    0.4526   -2.0899    0.0657 N   0  0  0  0  0  0  0  0  0  0  0  0
   -0.7363   -1.4530    0.1975 C   0  0  0  0  0  0  0  0  0  0  0  0
   -2.0660   -2.0995    0.1140 C   0  0  0  0  0  0  0  0  0  0  0  0
   -3.1702   -1.1109    0.3011 C   0  0  0  0  0  0  0  0  0  0  0  0
   -4.4640   -1.9349    0.2176 C   0  0  0  0  0  0  0  0  0  0  0  0
   -5.6494   -1.1793    0.3687 N   0  0  0  0  0  0  0  0  0  0  0  0
   -5.9813   -0.1394   -0.5372 C   0  0  0  0  0  0  0  0  0  0  0  0
   -5.2497    0.1676   -1.5104 O   0  0  0  0  0  0  0  0  0  0  0  0
   -7.2412    0.6152   -0.3344 C   0  0  0  0  0  0  0  0  0  0  0  0
   -6.9038    2.4397    0.1914 Br  0  0  0  0  0  0  0  0  0  0  0  0
   -0.4332   -0.1629    0.4189 N   0  0  0  0  0  0  0  0  0  0  0  0
    2.8592   -1.4013    0.1454 C   0  0  0  0  0  0  0  0  0  0  0  0
    3.3272   -2.5348   -0.0603 O   0  0  0  0  0  0  0  0  0  0  0  0
    3.6586   -0.3629    0.3149 N   0  0  0  0  0  0  0  0  0  0  0  0
    5.1235   -0.4827    0.2333 C   0  0  0  0  0  0  0  0  0  0  0  0
    5.5474   -0.2436   -1.2078 C   0  0  0  0  0  0  0  0  0  0  0  0
    7.0205   -0.3367   -1.4193 C   0  0  0  0  0  0  0  0  0  0  0  0
    3.1031    0.8568    0.5396 C   0  0  0  0  0  0  0  0  0  0  0  0
    3.8826    1.8109    0.6943 O   0  0  0  0  0  0  0  0  0  0  0  0
    0.4415    4.5908    0.8535 H   0  0  0  0  0  0  0  0  0  0  0  0
    1.1643    5.2022   -0.6731 H   0  0  0  0  0  0  0  0  0  0  0  0
   -0.5035    4.5352   -0.6731 H   0  0  0  0  0  0  0  0  0  0  0  0
    0.3505    2.5072   -1.1626 H   0  0  0  0  0  0  0  0  0  0  0  0
    2.0128    3.1345   -1.0551 H   0  0  0  0  0  0  0  0  0  0  0  0
    1.9132    2.9281    1.4487 H   0  0  0  0  0  0  0  0  0  0  0  0
    0.2439    2.2786    1.3150 H   0  0  0  0  0  0  0  0  0  0  0  0
   -2.1725   -2.5709   -0.8741 H   0  0  0  0  0  0  0  0  0  0  0  0
   -2.1354   -2.8490    0.9161 H   0  0  0  0  0  0  0  0  0  0  0  0
   -3.0873   -0.6206    1.2823 H   0  0  0  0  0  0  0  0  0  0  0  0
   -3.1407   -0.3124   -0.4549 H   0  0  0  0  0  0  0  0  0  0  0  0
   -4.4941   -2.4292   -0.7647 H   0  0  0  0  0  0  0  0  0  0  0  0
   -4.4370   -2.6469    1.0557 H   0  0  0  0  0  0  0  0  0  0  0  0
   -6.2847   -1.3880    1.1522 H   0  0  0  0  0  0  0  0  0  0  0  0
   -7.8120    0.6151   -1.2747 H   0  0  0  0  0  0  0  0  0  0  0  0
   -7.8081    0.1257    0.4712 H   0  0  0  0  0  0  0  0  0  0  0  0
   -1.1229    0.5886    0.5626 H   0  0  0  0  0  0  0  0  0  0  0  0
    5.5941    0.2659    0.8877 H   0  0  0  0  0  0  0  0  0  0  0  0
    5.4385   -1.4855    0.5576 H   0  0  0  0  0  0  0  0  0  0  0  0
    5.0564   -0.9946   -1.8441 H   0  0  0  0  0  0  0  0  0  0  0  0
    5.2484    0.7830   -1.4663 H   0  0  0  0  0  0  0  0  0  0  0  0
    7.5295   -0.3689   -0.4447 H   0  0  0  0  0  0  0  0  0  0  0  0
    7.2526   -1.2514   -1.9846 H   0  0  0  0  0  0  0  0  0  0  0  0
    7.3660    0.5413   -1.9846 H   0  0  0  0  0  0  0  0  0  0  0  0
  1  2  1  0
  2  3  1  0
  3  4  1  0
  4  5  1  0
  5  6  2  0
  6  7  1  0
  7  8  2  0
  8  9  1  0
  9 10  1  0
 10 11  1  0
 11 12  1  0
 12 13  1  0
 13 14  2  0
 13 15  1  0
 15 16  1  0
  8 17  1  0
  6 18  1  0
 18 19  2  0
 18 20  1  0
 20 21  1  0
 21 22  1  0
 22 23  1  0
 20 24  1  0
 24 25  2  0
 24  4  1  0
 17  5  1  0
  1 26  1  0
  1 27  1  0
  1 28  1  0
  2 29  1  0
  2 30  1  0
  3 31  1  0
  3 32  1  0
  9 33  1  0
  9 34  1  0
 10 35  1  0
 10 36  1  0
 11 37  1  0
 11 38  1  0
 12 39  1  0
 15 40  1  0
 15 41  1  0
 17 42  1  0
 21 43  1  0
 21 44  1  0
 22 45  1  0
 22 46  1  0
 23 47  1  0
 23 48  1  0
 23 49  1  0
M  END
>  <Original_Name>  (50) 
CHEMBL92906

>  <ROSHAMBO_ComboTanimoto>  (50) 
0.912

>  <ROSHAMBO_ShapeTanimoto>  (50) 
0.689

>  <ROSHAMBO_ColorTanimoto>  (50) 
0.223

>  <ROSHAMBO_FitTverskyCombo>  (50) 
1.257

>  <ROSHAMBO_FitTversky>  (50) 
0.845

>  <ROSHAMBO_FitColorTversky>  (50) 
0.411

>  <ROSHAMBO_RefTverskyCombo>  (50) 
1.115

>  <ROSHAMBO_RefTversky>  (50) 
0.788

>  <ROSHAMBO_RefColorTversky>  (50) 
0.327

>  <ROSHAMBO_Overlap>  (50) 
965.882

$$$$
CHEMBL461650_0_89
     RDKit          3D

 31 34  0  0  0  0  0  0  0  0999 V2000
    1.7243   -4.0732    0.1653 N   0  0  0  0  0  0  0  0  0  0  0  0
    1.7151   -2.6526    0.2277 C   0  0  0  0  0  0  0  0  0  0  0  0
    2.8370   -1.9217    0.0208 N   0  0  0  0  0  0  0  0  0  0  0  0
    2.8337   -0.5804    0.0786 C   0  0  0  0  0  0  0  0  0  0  0  0
    4.0675    0.1978   -0.1500 C   0  0  0  0  0  0  0  0  0  0  0  0
    5.2934   -0.3670   -0.4343 C   0  0  0  0  0  0  0  0  0  0  0  0
    6.2076    0.6710   -0.5840 C   0  0  0  0  0  0  0  0  0  0  0  0
    5.4683    1.8170   -0.3783 C   0  0  0  0  0  0  0  0  0  0  0  0
    4.2242    1.4832   -0.1285 O   0  0  0  0  0  0  0  0  0  0  0  0
    1.6486    0.0539    0.3571 C   0  0  0  0  0  0  0  0  0  0  0  0
    1.2919    1.3381    0.4875 N   0  0  0  0  0  0  0  0  0  0  0  0
    0.0002    1.3917    0.7639 N   0  0  0  0  0  0  0  0  0  0  0  0
   -0.5243    0.1802    0.8236 N   0  0  0  0  0  0  0  0  0  0  0  0
   -1.8599   -0.2572    1.0885 C   0  0  0  0  0  0  0  0  0  0  0  0
   -2.6944   -0.3811   -0.1346 C   0  0  0  0  0  0  0  0  0  0  0  0
   -3.4730    0.6543   -0.6629 C   0  0  0  0  0  0  0  0  0  0  0  0
   -4.0886    0.1379   -1.7915 C   0  0  0  0  0  0  0  0  0  0  0  0
   -3.6715   -1.1540   -1.9011 C   0  0  0  0  0  0  0  0  0  0  0  0
   -2.8529   -1.4098   -0.9023 O   0  0  0  0  0  0  0  0  0  0  0  0
    0.5053   -0.6768    0.5686 C   0  0  0  0  0  0  0  0  0  0  0  0
    0.5711   -2.0194    0.4975 N   0  0  0  0  0  0  0  0  0  0  0  0
    0.8551   -4.6015    0.3272 H   0  0  0  0  0  0  0  0  0  0  0  0
    2.6002   -4.5739   -0.0420 H   0  0  0  0  0  0  0  0  0  0  0  0
    5.5088   -1.4418   -0.5258 H   0  0  0  0  0  0  0  0  0  0  0  0
    7.2804    0.5947   -0.8150 H   0  0  0  0  0  0  0  0  0  0  0  0
    5.8586    2.8447   -0.4173 H   0  0  0  0  0  0  0  0  0  0  0  0
   -1.8138   -1.2402    1.5800 H   0  0  0  0  0  0  0  0  0  0  0  0
   -2.3306    0.5053    1.7264 H   0  0  0  0  0  0  0  0  0  0  0  0
   -3.5758    1.6737   -0.2626 H   0  0  0  0  0  0  0  0  0  0  0  0
   -4.7781    0.6668   -2.4659 H   0  0  0  0  0  0  0  0  0  0  0  0
   -3.9677   -1.8622   -2.6890 H   0  0  0  0  0  0  0  0  0  0  0  0
  1  2  1  0
  2  3  2  0
  3  4  1  0
  4  5  1  0
  5  6  2  0
  6  7  1  0
  7  8  2  0
  8  9  1  0
  4 10  2  0
 10 11  1  0
 11 12  2  0
 12 13  1  0
 13 14  1  0
 14 15  1  0
 15 16  2  0
 16 17  1  0
 17 18  2  0
 18 19  1  0
 13 20  1  0
 20 21  2  0
 21  2  1  0
  9  5  1  0
 20 10  1  0
 19 15  1  0
  1 22  1  0
  1 23  1  0
  6 24  1  0
  7 25  1  0
  8 26  1  0
 14 27  1  0
 14 28  1  0
 16 29  1  0
 17 30  1  0
 18 31  1  0
M  END
>  <Original_Name>  (51) 
CHEMBL461650

>  <ROSHAMBO_ComboTanimoto>  (51) 
0.911

>  <ROSHAMBO_ShapeTanimoto>  (51) 
0.581

>  <ROSHAMBO_ColorTanimoto>  (51) 
0.33

>  <ROSHAMBO_FitTverskyCombo>  (51) 
1.307

>  <ROSHAMBO_FitTversky>  (51) 
0.791

>  <ROSHAMBO_FitColorTversky>  (51) 
0.516

>  <ROSHAMBO_RefTverskyCombo>  (51) 
1.165

>  <ROSHAMBO_RefTversky>  (51) 
0.686

>  <ROSHAMBO_RefColorTversky>  (51) 
0.479

>  <ROSHAMBO_Overlap>  (51) 
838.261

$$$$
CHEMBL1170519_0_40
     RDKit          3D

 43 45  0  0  0  0  0  0  0  0999 V2000
    2.8483    2.3744    1.1400 C   0  0  0  0  0  0  0  0  0  0  0  0
    3.2487    1.8611   -0.2017 C   0  0  0  0  0  0  0  0  0  0  0  0
    3.8714    0.5351   -0.0365 N   0  0  0  0  0  0  0  0  0  0  0  0
    5.2428    0.5446    0.2066 C   0  0  0  0  0  0  0  0  0  0  0  0
    6.1869   -0.5092    0.5572 C   0  0  0  0  0  0  0  0  0  0  0  0
    5.8240    1.7224    0.1140 O   0  0  0  0  0  0  0  0  0  0  0  0
    3.0723   -0.6066   -0.1572 C   0  0  0  0  0  0  0  0  0  0  0  0
    1.6606   -0.5245   -0.1348 C   0  0  0  0  0  0  0  0  0  0  0  0
    0.5499    0.8448    0.0657 S   0  0  0  0  0  0  0  0  0  0  0  0
   -0.9852   -0.2436   -0.0809 C   0  0  0  0  0  0  0  0  0  0  0  0
   -2.2784    0.4044    0.0182 N   0  0  0  0  0  0  0  0  0  0  0  0
   -3.4442   -0.3642   -0.0849 C   0  0  0  0  0  0  0  0  0  0  0  0
   -3.3236   -1.5902   -0.2600 O   0  0  0  0  0  0  0  0  0  0  0  0
   -4.7478    0.2700    0.0122 C   0  0  0  0  0  0  0  0  0  0  0  0
   -5.0816    1.5913    0.2020 C   0  0  0  0  0  0  0  0  0  0  0  0
   -6.4206    1.7180    0.2272 N   0  0  0  0  0  0  0  0  0  0  0  0
   -7.0067    0.5210    0.0599 C   0  0  0  0  0  0  0  0  0  0  0  0
   -5.9788   -0.3887   -0.0750 C   0  0  0  0  0  0  0  0  0  0  0  0
   -0.4832   -1.2613   -0.2284 N   0  0  0  0  0  0  0  0  0  0  0  0
    0.8205   -1.5547   -0.2771 C   0  0  0  0  0  0  0  0  0  0  0  0
    1.3561   -2.8194   -0.4636 C   0  0  0  0  0  0  0  0  0  0  0  0
    0.6093   -3.9773   -0.6243 O   0  0  0  0  0  0  0  0  0  0  0  0
    1.1466   -5.2442   -0.8111 C   0  0  0  0  0  0  0  0  0  0  0  0
    2.7181   -2.9462   -0.4931 C   0  0  0  0  0  0  0  0  0  0  0  0
    3.5971   -1.8870   -0.3476 C   0  0  0  0  0  0  0  0  0  0  0  0
    3.3237    1.7649    1.9226 H   0  0  0  0  0  0  0  0  0  0  0  0
    3.1711    3.4208    1.2435 H   0  0  0  0  0  0  0  0  0  0  0  0
    1.7548    2.3161    1.2435 H   0  0  0  0  0  0  0  0  0  0  0  0
    2.3604    1.7749   -0.8447 H   0  0  0  0  0  0  0  0  0  0  0  0
    3.9637    2.5542   -0.6690 H   0  0  0  0  0  0  0  0  0  0  0  0
    6.2580   -0.5884    1.6520 H   0  0  0  0  0  0  0  0  0  0  0  0
    5.8388   -1.4665    0.1420 H   0  0  0  0  0  0  0  0  0  0  0  0
    7.1766   -0.2677    0.1420 H   0  0  0  0  0  0  0  0  0  0  0  0
   -2.3390    1.4223    0.1633 H   0  0  0  0  0  0  0  0  0  0  0  0
   -4.3639    2.4171    0.3157 H   0  0  0  0  0  0  0  0  0  0  0  0
   -6.9248    2.6068    0.3563 H   0  0  0  0  0  0  0  0  0  0  0  0
   -8.0859    0.3095    0.0355 H   0  0  0  0  0  0  0  0  0  0  0  0
   -6.1078   -1.4703   -0.2282 H   0  0  0  0  0  0  0  0  0  0  0  0
    1.3429   -5.7072    0.1672 H   0  0  0  0  0  0  0  0  0  0  0  0
    0.4343   -5.8651   -1.3743 H   0  0  0  0  0  0  0  0  0  0  0  0
    2.0880   -5.1638   -1.3743 H   0  0  0  0  0  0  0  0  0  0  0  0
    3.1402   -3.9511   -0.6414 H   0  0  0  0  0  0  0  0  0  0  0  0
    4.6845   -2.0498   -0.3811 H   0  0  0  0  0  0  0  0  0  0  0  0
  1  2  1  0
  2  3  1  0
  3  4  1  0
  4  5  1  0
  4  6  2  0
  3  7  1  0
  7  8  2  0
  8  9  1  0
  9 10  1  0
 10 11  1  0
 11 12  1  0
 12 13  2  0
 12 14  1  0
 14 15  2  0
 15 16  1  0
 16 17  1  0
 17 18  2  0
 10 19  2  0
 19 20  1  0
 20 21  2  0
 21 22  1  0
 22 23  1  0
 21 24  1  0
 24 25  2  0
 25  7  1  0
 20  8  1  0
 18 14  1  0
  1 26  1  0
  1 27  1  0
  1 28  1  0
  2 29  1  0
  2 30  1  0
  5 31  1  0
  5 32  1  0
  5 33  1  0
 11 34  1  0
 15 35  1  0
 16 36  1  0
 17 37  1  0
 18 38  1  0
 23 39  1  0
 23 40  1  0
 23 41  1  0
 24 42  1  0
 25 43  1  0
M  END
>  <Original_Name>  (52) 
CHEMBL1170519

>  <ROSHAMBO_ComboTanimoto>  (52) 
0.909

>  <ROSHAMBO_ShapeTanimoto>  (52) 
0.639

>  <ROSHAMBO_ColorTanimoto>  (52) 
0.27

>  <ROSHAMBO_FitTverskyCombo>  (52) 
1.327

>  <ROSHAMBO_FitTversky>  (52) 
0.799

>  <ROSHAMBO_FitColorTversky>  (52) 
0.528

>  <ROSHAMBO_RefTverskyCombo>  (52) 
1.118

>  <ROSHAMBO_RefTversky>  (52) 
0.762

>  <ROSHAMBO_RefColorTversky>  (52) 
0.356

>  <ROSHAMBO_Overlap>  (52) 
935.335

$$$$
CHEMBL166429_0_5
     RDKit          3D

 31 32  0  0  0  0  0  0  0  0999 V2000
   -0.3715    0.1108    0.5694 S   0  0  0  0  0  0  0  0  0  0  0  0
   -0.3056   -1.3829   -0.0563 C   0  0  0  0  0  0  0  0  0  0  0  0
    1.0007   -1.9779   -0.3941 C   0  0  0  0  0  0  0  0  0  0  0  0
    2.0852   -1.0384   -0.0784 C   0  0  0  0  0  0  0  0  0  0  0  0
    2.6649   -1.0533    1.1558 C   0  0  0  0  0  0  0  0  0  0  0  0
    3.7012   -0.1873    1.5229 C   0  0  0  0  0  0  0  0  0  0  0  0
    4.1262    0.7068    0.5633 C   0  0  0  0  0  0  0  0  0  0  0  0
    3.5576    0.7434   -0.6924 C   0  0  0  0  0  0  0  0  0  0  0  0
    2.5298   -0.1279   -1.0310 C   0  0  0  0  0  0  0  0  0  0  0  0
   -1.4863   -2.1108   -0.2774 N   0  0  0  0  0  0  0  0  0  0  0  0
   -2.7601   -1.6309    0.0102 N   0  0  0  0  0  0  0  0  0  0  0  0
   -3.1009   -0.4735   -0.4170 C   0  0  0  0  0  0  0  0  0  0  0  0
   -4.4373    0.0470   -0.1236 C   0  0  0  0  0  0  0  0  0  0  0  0
   -4.8441    1.2790   -0.5604 C   0  0  0  0  0  0  0  0  0  0  0  0
   -6.1090    1.7516   -0.2727 C   0  0  0  0  0  0  0  0  0  0  0  0
   -6.9561    0.9519    0.4668 C   0  0  0  0  0  0  0  0  0  0  0  0
   -6.5775   -0.2614    0.9060 N   0  0  0  0  0  0  0  0  0  0  0  0
   -5.3268   -0.7038    0.6094 C   0  0  0  0  0  0  0  0  0  0  0  0
    1.1399   -2.9016    0.1869 H   0  0  0  0  0  0  0  0  0  0  0  0
    1.0240   -2.2031   -1.4705 H   0  0  0  0  0  0  0  0  0  0  0  0
    2.3012   -1.7798    1.8973 H   0  0  0  0  0  0  0  0  0  0  0  0
    4.1532   -0.2183    2.5252 H   0  0  0  0  0  0  0  0  0  0  0  0
    4.9385    1.4080    0.8052 H   0  0  0  0  0  0  0  0  0  0  0  0
    3.9216    1.4701   -1.4337 H   0  0  0  0  0  0  0  0  0  0  0  0
    2.0766   -0.0982   -2.0329 H   0  0  0  0  0  0  0  0  0  0  0  0
   -1.4042   -3.0568   -0.6765 H   0  0  0  0  0  0  0  0  0  0  0  0
   -2.3912    0.1286   -1.0033 H   0  0  0  0  0  0  0  0  0  0  0  0
   -4.1535    1.9011   -1.1486 H   0  0  0  0  0  0  0  0  0  0  0  0
   -6.4337    2.7419   -0.6247 H   0  0  0  0  0  0  0  0  0  0  0  0
   -7.9668    1.3161    0.7032 H   0  0  0  0  0  0  0  0  0  0  0  0
   -5.0154   -1.6960    0.9679 H   0  0  0  0  0  0  0  0  0  0  0  0
  1  2  2  0
  2  3  1  0
  3  4  1  0
  4  5  2  0
  5  6  1  0
  6  7  2  0
  7  8  1  0
  8  9  2  0
  2 10  1  0
 10 11  1  0
 11 12  2  3
 12 13  1  0
 13 14  2  0
 14 15  1  0
 15 16  2  0
 16 17  1  0
 17 18  2  0
  9  4  1  0
 18 13  1  0
  3 19  1  0
  3 20  1  0
  5 21  1  0
  6 22  1  0
  7 23  1  0
  8 24  1  0
  9 25  1  0
 10 26  1  0
 12 27  1  0
 14 28  1  0
 15 29  1  0
 16 30  1  0
 18 31  1  0
M  END
>  <Original_Name>  (53) 
CHEMBL166429

>  <ROSHAMBO_ComboTanimoto>  (53) 
0.907

>  <ROSHAMBO_ShapeTanimoto>  (53) 
0.628

>  <ROSHAMBO_ColorTanimoto>  (53) 
0.279

>  <ROSHAMBO_FitTverskyCombo>  (53) 
1.647

>  <ROSHAMBO_FitTversky>  (53) 
0.944

>  <ROSHAMBO_FitColorTversky>  (53) 
0.704

>  <ROSHAMBO_RefTverskyCombo>  (53) 
0.969

>  <ROSHAMBO_RefTversky>  (53) 
0.653

>  <ROSHAMBO_RefColorTversky>  (53) 
0.317

>  <ROSHAMBO_Overlap>  (53) 
789.44

$$$$
CHEMBL209366_1_17
     RDKit          3D

 48 51  0  0  0  0  0  0  0  0999 V2000
    7.6568   -1.8223    0.0566 C   0  0  0  0  0  0  0  0  0  0  0  0
    8.0788   -0.4102   -0.2125 C   0  0  0  0  0  0  0  0  0  0  0  0
    7.1677    0.3244   -1.1398 C   0  0  0  0  0  0  0  0  0  0  0  0
    5.7970    0.4200   -0.6337 N   0  0  0  0  0  0  0  0  0  0  0  0
    5.5099    1.4892    0.1344 C   0  0  0  0  0  0  0  0  0  0  0  0
    6.4307    2.3413    0.3760 O   0  0  0  0  0  0  0  0  0  0  0  0
    4.2798    1.6653    0.6422 N   0  0  0  0  0  0  0  0  0  0  0  0
    3.3193    0.7342    0.3635 C   0  0  0  0  0  0  0  0  0  0  0  0
    3.6049   -0.3610   -0.4206 C   0  0  0  0  0  0  0  0  0  0  0  0
    2.4734   -1.0957   -0.5200 N   0  0  0  0  0  0  0  0  0  0  0  0
    1.5203   -0.4840    0.1737 C   0  0  0  0  0  0  0  0  0  0  0  0
    2.0341    0.6336    0.7143 N   0  0  0  0  0  0  0  0  0  0  0  0
    0.1148   -0.8973    0.3658 C   0  0  0  0  0  0  0  0  0  0  0  0
   -0.3714   -2.0522   -0.2071 C   0  0  0  0  0  0  0  0  0  0  0  0
   -1.6931   -2.4435   -0.0281 C   0  0  0  0  0  0  0  0  0  0  0  0
   -2.5722   -1.6977    0.7267 C   0  0  0  0  0  0  0  0  0  0  0  0
   -2.0846   -0.5437    1.2986 C   0  0  0  0  0  0  0  0  0  0  0  0
   -0.7676   -0.1548    1.1196 C   0  0  0  0  0  0  0  0  0  0  0  0
   -4.2407   -2.2113    0.9402 S   0  0  0  0  0  6  0  0  0  0  0  0
   -4.7080   -1.8113    2.3136 O   0  0  0  0  0  0  0  0  0  0  0  0
   -4.3465   -3.7181    0.8730 O   0  0  0  0  0  0  0  0  0  0  0  0
   -5.2021   -1.5479   -0.3029 N   0  0  0  0  0  2  0  0  0  0  0  0
   -5.3699   -0.1533   -0.5011 C   0  0  0  0  0  0  0  0  0  0  0  0
   -6.3900    0.5391    0.1170 C   0  0  0  0  0  0  0  0  0  0  0  0
   -6.5484    1.9010   -0.0808 C   0  0  0  0  0  0  0  0  0  0  0  0
   -5.6870    2.6131   -0.9065 C   0  0  0  0  0  0  0  0  0  0  0  0
   -4.6713    1.9082   -1.5183 C   0  0  0  0  0  0  0  0  0  0  0  0
   -4.5084    0.5507   -1.3249 C   0  0  0  0  0  0  0  0  0  0  0  0
    4.8864   -0.5224   -0.9357 C   0  0  0  0  0  0  0  0  0  0  0  0
    5.1426   -1.5053   -1.6399 O   0  0  0  0  0  0  0  0  0  0  0  0
    7.6069   -1.9893    1.1427 H   0  0  0  0  0  0  0  0  0  0  0  0
    6.6663   -1.9999   -0.3876 H   0  0  0  0  0  0  0  0  0  0  0  0
    8.3874   -2.5143   -0.3876 H   0  0  0  0  0  0  0  0  0  0  0  0
    8.1095    0.1311    0.7446 H   0  0  0  0  0  0  0  0  0  0  0  0
    9.0632   -0.4574   -0.7011 H   0  0  0  0  0  0  0  0  0  0  0  0
    7.5601    1.3417   -1.2850 H   0  0  0  0  0  0  0  0  0  0  0  0
    7.1327   -0.2391   -2.0839 H   0  0  0  0  0  0  0  0  0  0  0  0
    4.0648    2.4841    1.2288 H   0  0  0  0  0  0  0  0  0  0  0  0
    1.5203    1.3041    1.3036 H   0  0  0  0  0  0  0  0  0  0  0  0
    0.2985   -2.6759   -0.8172 H   0  0  0  0  0  0  0  0  0  0  0  0
   -2.0462   -3.3719   -0.5008 H   0  0  0  0  0  0  0  0  0  0  0  0
   -2.7536    0.0807    1.9089 H   0  0  0  0  0  0  0  0  0  0  0  0
   -0.4158    0.7738    1.5929 H   0  0  0  0  0  0  0  0  0  0  0  0
   -7.0878    0.0022    0.7764 H   0  0  0  0  0  0  0  0  0  0  0  0
   -7.3708    2.4282    0.4248 H   0  0  0  0  0  0  0  0  0  0  0  0
   -5.8099    3.6946   -1.0657 H   0  0  0  0  0  0  0  0  0  0  0  0
   -3.9719    2.4422   -2.1783 H   0  0  0  0  0  0  0  0  0  0  0  0
   -3.6859    0.0235   -1.8305 H   0  0  0  0  0  0  0  0  0  0  0  0
  1  2  1  0
  2  3  1  0
  3  4  1  0
  4  5  1  0
  5  6  2  0
  5  7  1  0
  7  8  1  0
  8  9  2  0
  9 10  1  0
 10 11  2  0
 11 12  1  0
 11 13  1  0
 13 14  2  0
 14 15  1  0
 15 16  2  0
 16 17  1  0
 17 18  2  0
 16 19  1  0
 19 20  2  0
 19 21  2  0
 19 22  1  0
 22 23  1  0
 23 24  2  0
 24 25  1  0
 25 26  2  0
 26 27  1  0
 27 28  2  0
  9 29  1  0
 29 30  2  0
 29  4  1  0
 12  8  1  0
 18 13  1  0
 28 23  1  0
  1 31  1  0
  1 32  1  0
  1 33  1  0
  2 34  1  0
  2 35  1  0
  3 36  1  0
  3 37  1  0
  7 38  1  0
 12 39  1  0
 14 40  1  0
 15 41  1  0
 17 42  1  0
 18 43  1  0
 24 44  1  0
 25 45  1  0
 26 46  1  0
 27 47  1  0
 28 48  1  0
M  CHG  1  22  -1
M  END
>  <Original_Name>  (54) 
CHEMBL209366

>  <ROSHAMBO_ComboTanimoto>  (54) 
0.901

>  <ROSHAMBO_ShapeTanimoto>  (54) 
0.685

>  <ROSHAMBO_ColorTanimoto>  (54) 
0.216

>  <ROSHAMBO_FitTverskyCombo>  (54) 
1.124

>  <ROSHAMBO_FitTversky>  (54) 
0.764

>  <ROSHAMBO_FitColorTversky>  (54) 
0.359

>  <ROSHAMBO_RefTverskyCombo>  (54) 
1.221

>  <ROSHAMBO_RefTversky>  (54) 
0.869

>  <ROSHAMBO_RefColorTversky>  (54) 
0.351

>  <ROSHAMBO_Overlap>  (54) 
1077.923

$$$$
CHEMBL573589_0_60
     RDKit          3D

 44 48  0  0  0  0  0  0  0  0999 V2000
    2.0930   -6.2870    0.0043 C   0  0  0  0  0  0  0  0  0  0  0  0
    1.9747   -4.8272    0.0960 N   0  0  0  0  0  0  0  0  0  0  0  0
    2.9708   -3.9470    0.0025 C   0  0  0  0  0  0  0  0  0  0  0  0
    2.4423   -2.6821    0.1414 C   0  0  0  0  0  0  0  0  0  0  0  0
    1.0879   -2.8423    0.3221 C   0  0  0  0  0  0  0  0  0  0  0  0
    0.8507   -4.1488    0.2878 N   0  0  0  0  0  0  0  0  0  0  0  0
    0.3632   -1.7130    0.4815 N   0  0  0  0  0  0  0  0  0  0  0  0
    0.9502   -0.5035    0.4620 C   0  0  0  0  0  0  0  0  0  0  0  0
    0.1308    0.6687    0.6368 N   0  0  0  0  0  0  0  0  0  0  0  0
   -1.2821    0.5413    0.8273 C   0  0  0  0  0  0  0  0  0  0  0  0
   -1.7950   -0.5890    0.8404 O   0  0  0  0  0  0  0  0  0  0  0  0
   -2.0947    1.7605    1.0036 C   0  0  0  0  0  0  0  0  0  0  0  0
   -3.4464    1.5114    1.1728 O   0  0  0  0  0  0  0  0  0  0  0  0
   -4.2298    0.9146    0.2108 C   0  0  0  0  0  0  0  0  0  0  0  0
   -5.5795    0.6944    0.5073 C   0  0  0  0  0  0  0  0  0  0  0  0
   -6.4452    0.1077   -0.3844 C   0  0  0  0  0  0  0  0  0  0  0  0
   -5.9906   -0.2862   -1.6213 C   0  0  0  0  0  0  0  0  0  0  0  0
   -4.6673   -0.0775   -1.9301 C   0  0  0  0  0  0  0  0  0  0  0  0
   -3.7874    0.5184   -1.0256 C   0  0  0  0  0  0  0  0  0  0  0  0
    2.2708   -0.3185    0.2873 N   0  0  0  0  0  0  0  0  0  0  0  0
    3.0622    0.7530    0.2322 N   0  0  0  0  0  0  0  0  0  0  0  0
    4.3342    0.3619    0.0345 C   0  0  0  0  0  0  0  0  0  0  0  0
    4.3041   -0.9796   -0.0305 N   0  0  0  0  0  0  0  0  0  0  0  0
    3.0453   -1.4309    0.1219 C   0  0  0  0  0  0  0  0  0  0  0  0
    5.5287    1.2214   -0.0878 C   0  0  0  0  0  0  0  0  0  0  0  0
    5.5290    2.5252   -0.4755 C   0  0  0  0  0  0  0  0  0  0  0  0
    6.8476    2.9272   -0.4479 C   0  0  0  0  0  0  0  0  0  0  0  0
    7.6073    1.8500   -0.0429 C   0  0  0  0  0  0  0  0  0  0  0  0
    6.7658    0.8654    0.1560 O   0  0  0  0  0  0  0  0  0  0  0  0
    2.1278   -6.7164    1.0164 H   0  0  0  0  0  0  0  0  0  0  0  0
    1.2247   -6.6920   -0.5362 H   0  0  0  0  0  0  0  0  0  0  0  0
    3.0152   -6.5468   -0.5362 H   0  0  0  0  0  0  0  0  0  0  0  0
    4.0318   -4.1886   -0.1580 H   0  0  0  0  0  0  0  0  0  0  0  0
    0.5640    1.6031    0.6246 H   0  0  0  0  0  0  0  0  0  0  0  0
   -1.7271    2.2970    1.8907 H   0  0  0  0  0  0  0  0  0  0  0  0
   -1.9906    2.3510    0.0814 H   0  0  0  0  0  0  0  0  0  0  0  0
   -5.9621    1.0027    1.4915 H   0  0  0  0  0  0  0  0  0  0  0  0
   -7.4992   -0.0463   -0.1096 H   0  0  0  0  0  0  0  0  0  0  0  0
   -6.6701   -0.7575   -2.3467 H   0  0  0  0  0  0  0  0  0  0  0  0
   -4.2922   -0.3884   -2.9163 H   0  0  0  0  0  0  0  0  0  0  0  0
   -2.7346    0.6710   -1.3054 H   0  0  0  0  0  0  0  0  0  0  0  0
    4.6562    3.1340   -0.7539 H   0  0  0  0  0  0  0  0  0  0  0  0
    7.2259    3.9280   -0.7033 H   0  0  0  0  0  0  0  0  0  0  0  0
    8.6993    1.8228    0.0870 H   0  0  0  0  0  0  0  0  0  0  0  0
  1  2  1  0
  2  3  1  0
  3  4  2  0
  4  5  1  0
  5  6  2  0
  5  7  1  0
  7  8  2  0
  8  9  1  0
  9 10  1  0
 10 11  2  0
 10 12  1  0
 12 13  1  0
 13 14  1  0
 14 15  2  0
 15 16  1  0
 16 17  2  0
 17 18  1  0
 18 19  2  0
  8 20  1  0
 20 21  1  0
 21 22  2  0
 22 23  1  0
 23 24  2  0
 22 25  1  0
 25 26  2  0
 26 27  1  0
 27 28  2  0
 28 29  1  0
  6  2  1  0
 19 14  1  0
 24 20  1  0
 29 25  1  0
 24  4  1  0
  1 30  1  0
  1 31  1  0
  1 32  1  0
  3 33  1  0
  9 34  1  0
 12 35  1  0
 12 36  1  0
 15 37  1  0
 16 38  1  0
 17 39  1  0
 18 40  1  0
 19 41  1  0
 26 42  1  0
 27 43  1  0
 28 44  1  0
M  END
>  <Original_Name>  (55) 
CHEMBL573589

>  <ROSHAMBO_ComboTanimoto>  (55) 
0.896

>  <ROSHAMBO_ShapeTanimoto>  (55) 
0.531

>  <ROSHAMBO_ColorTanimoto>  (55) 
0.365

>  <ROSHAMBO_FitTverskyCombo>  (55) 
1.179

>  <ROSHAMBO_FitTversky>  (55) 
0.646

>  <ROSHAMBO_FitColorTversky>  (55) 
0.533

>  <ROSHAMBO_RefTverskyCombo>  (55) 
1.285

>  <ROSHAMBO_RefTversky>  (55) 
0.747

>  <ROSHAMBO_RefColorTversky>  (55) 
0.538

>  <ROSHAMBO_Overlap>  (55) 
927.667

$$$$
CHEMBL178435_0_60
     RDKit          3D

 37 40  0  0  0  0  0  0  0  0999 V2000
    7.0662    1.2531    0.5741 C   0  0  0  0  0  0  0  0  0  0  0  0
    5.8216    0.4698    0.3510 C   0  0  0  0  0  0  0  0  0  0  0  0
    5.8813   -0.8369   -0.1325 C   0  0  0  0  0  0  0  0  0  0  0  0
    4.7366   -1.5770   -0.3449 C   0  0  0  0  0  0  0  0  0  0  0  0
    3.5085   -1.0110   -0.0730 C   0  0  0  0  0  0  0  0  0  0  0  0
    2.1482   -1.5791   -0.2110 C   0  0  0  0  0  0  0  0  0  0  0  0
    1.2369   -0.4846    0.2388 C   0  0  0  0  0  0  0  0  0  0  0  0
   -0.1238   -0.4305    0.3296 C   0  0  0  0  0  0  0  0  0  0  0  0
   -0.9816   -1.6044   -0.0574 C   0  0  0  0  0  0  0  0  0  0  0  0
   -1.3347   -1.5077   -1.5073 C   0  0  0  0  0  0  0  0  0  0  0  0
   -2.7620   -1.9927   -1.5351 C   0  0  0  0  0  0  0  0  0  0  0  0
   -3.2106   -1.7859   -0.1174 C   0  0  0  0  0  0  0  0  0  0  0  0
   -4.1966   -0.1036    0.0127 Br  0  0  0  0  0  0  0  0  0  0  0  0
   -2.1179   -1.6823    0.6834 O   0  0  0  0  0  0  0  0  0  0  0  0
   -0.6944    0.7015    0.7754 N   0  0  0  0  0  0  0  0  0  0  0  0
    0.0263    1.7776    1.1335 C   0  0  0  0  0  0  0  0  0  0  0  0
   -0.5580    2.9733    1.6034 N   0  0  0  0  0  0  0  0  0  0  0  0
    1.3644    1.7208    1.0429 N   0  0  0  0  0  0  0  0  0  0  0  0
    1.9878    0.6133    0.6033 C   0  0  0  0  0  0  0  0  0  0  0  0
    3.3985    0.2843    0.4089 C   0  0  0  0  0  0  0  0  0  0  0  0
    4.5779    0.9948    0.6087 C   0  0  0  0  0  0  0  0  0  0  0  0
    7.2413    1.3633    1.6545 H   0  0  0  0  0  0  0  0  0  0  0  0
    7.9172    0.7275    0.1165 H   0  0  0  0  0  0  0  0  0  0  0  0
    6.9604    2.2478    0.1165 H   0  0  0  0  0  0  0  0  0  0  0  0
    6.8615   -1.2868   -0.3489 H   0  0  0  0  0  0  0  0  0  0  0  0
    4.8026   -2.6064   -0.7268 H   0  0  0  0  0  0  0  0  0  0  0  0
    1.9442   -1.8490   -1.2577 H   0  0  0  0  0  0  0  0  0  0  0  0
    2.0182   -2.4992    0.3776 H   0  0  0  0  0  0  0  0  0  0  0  0
   -0.3994   -2.5174    0.1365 H   0  0  0  0  0  0  0  0  0  0  0  0
   -1.2615   -0.4700   -1.8648 H   0  0  0  0  0  0  0  0  0  0  0  0
   -0.6644   -2.0875   -2.1589 H   0  0  0  0  0  0  0  0  0  0  0  0
   -3.3691   -1.3980   -2.2336 H   0  0  0  0  0  0  0  0  0  0  0  0
   -2.8620   -3.0336   -1.8763 H   0  0  0  0  0  0  0  0  0  0  0  0
   -3.8441   -2.6318    0.1877 H   0  0  0  0  0  0  0  0  0  0  0  0
    0.0396    3.7702    1.8653 H   0  0  0  0  0  0  0  0  0  0  0  0
   -1.5820    3.0489    1.6845 H   0  0  0  0  0  0  0  0  0  0  0  0
    4.5120    2.0243    0.9906 H   0  0  0  0  0  0  0  0  0  0  0  0
  1  2  1  0
  2  3  2  0
  3  4  1  0
  4  5  2  0
  5  6  1  0
  6  7  1  0
  7  8  2  0
  8  9  1  0
  9 10  1  0
 10 11  1  0
 11 12  1  0
 12 13  1  0
 12 14  1  0
  8 15  1  0
 15 16  2  0
 16 17  1  0
 16 18  1  0
 18 19  2  0
 19 20  1  0
 20 21  2  0
 21  2  1  0
 20  5  1  0
 19  7  1  0
 14  9  1  0
  1 22  1  0
  1 23  1  0
  1 24  1  0
  3 25  1  0
  4 26  1  0
  6 27  1  0
  6 28  1  0
  9 29  1  0
 10 30  1  0
 10 31  1  0
 11 32  1  0
 11 33  1  0
 12 34  1  0
 17 35  1  0
 17 36  1  0
 21 37  1  0
M  END
>  <Original_Name>  (56) 
CHEMBL178435

>  <ROSHAMBO_ComboTanimoto>  (56) 
0.888

>  <ROSHAMBO_ShapeTanimoto>  (56) 
0.634

>  <ROSHAMBO_ColorTanimoto>  (56) 
0.254

>  <ROSHAMBO_FitTverskyCombo>  (56) 
1.306

>  <ROSHAMBO_FitTversky>  (56) 
0.855

>  <ROSHAMBO_FitColorTversky>  (56) 
0.451

>  <ROSHAMBO_RefTverskyCombo>  (56) 
1.078

>  <ROSHAMBO_RefTversky>  (56) 
0.71

>  <ROSHAMBO_RefColorTversky>  (56) 
0.368

>  <ROSHAMBO_Overlap>  (56) 
865.305

$$$$
CHEMBL405234_0_37
     RDKit          3D

 31 33  0  0  0  0  0  0  0  0999 V2000
    3.6480   -1.9825   -0.3675 O   0  0  0  0  0  0  0  0  0  0  0  0
    3.7018   -0.7467   -0.1849 C   0  0  0  0  0  0  0  0  0  0  0  0
    4.9443   -0.0846   -0.2488 C   0  0  0  0  0  0  0  0  0  0  0  0
    6.1975   -0.4480   -0.5502 C   0  0  0  0  0  0  0  0  0  0  0  0
    7.2224    0.4094   -0.5078 C   0  0  0  0  0  0  0  0  0  0  0  0
    6.9682    1.7181   -0.1373 C   0  0  0  0  0  0  0  0  0  0  0  0
    5.1658    1.7090    0.1641 S   0  0  0  0  0  0  0  0  0  0  0  0
    2.4846   -0.0146    0.0891 C   0  0  0  0  0  0  0  0  0  0  0  0
    1.3160   -0.7415    0.2424 C   0  0  0  0  0  0  0  0  0  0  0  0
    0.9969   -2.4679    0.1785 S   0  0  0  0  0  0  0  0  0  0  0  0
   -0.7822   -2.3680    0.4922 C   0  0  0  0  0  0  0  0  0  0  0  0
   -0.9716   -1.0110    0.6188 C   0  0  0  0  0  0  0  0  0  0  0  0
    0.1026   -0.2188    0.4880 C   0  0  0  0  0  0  0  0  0  0  0  0
    0.1080    1.1752    0.5802 N   0  0  0  0  0  0  0  0  0  0  0  0
    1.2357    1.8507    0.4288 C   0  0  0  0  0  0  0  0  0  0  0  0
    1.1701    3.2864    0.5029 N   0  0  0  0  0  0  0  0  0  0  0  0
    1.1297    3.9871   -0.7756 C   0  0  0  0  0  0  0  0  0  0  0  0
   -0.1052    3.6118   -1.5664 C   0  0  0  0  0  0  0  0  0  0  0  0
   -0.1075    2.2358   -1.8104 O   0  0  0  0  0  0  0  0  0  0  0  0
    2.4540    1.3448    0.1849 N   0  0  0  0  0  0  0  0  0  0  0  0
    6.3907   -1.4904   -0.8435 H   0  0  0  0  0  0  0  0  0  0  0  0
    8.2418    0.0828   -0.7610 H   0  0  0  0  0  0  0  0  0  0  0  0
    7.6754    2.5558   -0.0467 H   0  0  0  0  0  0  0  0  0  0  0  0
   -1.5203   -3.1806    0.5632 H   0  0  0  0  0  0  0  0  0  0  0  0
   -1.9682   -0.5912    0.8200 H   0  0  0  0  0  0  0  0  0  0  0  0
    1.1527    3.7877    1.4024 H   0  0  0  0  0  0  0  0  0  0  0  0
    1.1214    5.0714   -0.5905 H   0  0  0  0  0  0  0  0  0  0  0  0
    2.0172    3.7000   -1.3586 H   0  0  0  0  0  0  0  0  0  0  0  0
   -1.0035    3.8829   -0.9923 H   0  0  0  0  0  0  0  0  0  0  0  0
   -0.1026    4.1519   -2.5246 H   0  0  0  0  0  0  0  0  0  0  0  0
   -0.1083    1.7479   -0.9490 H   0  0  0  0  0  0  0  0  0  0  0  0
  1  2  2  0
  2  3  1  0
  3  4  2  0
  4  5  1  0
  5  6  2  0
  6  7  1  0
  2  8  1  0
  8  9  2  0
  9 10  1  0
 10 11  1  0
 11 12  2  0
 12 13  1  0
 13 14  2  0
 14 15  1  0
 15 16  1  0
 16 17  1  0
 17 18  1  0
 18 19  1  0
 15 20  2  0
  7  3  1  0
 20  8  1  0
 13  9  1  0
  4 21  1  0
  5 22  1  0
  6 23  1  0
 11 24  1  0
 12 25  1  0
 16 26  1  0
 17 27  1  0
 17 28  1  0
 18 29  1  0
 18 30  1  0
 19 31  1  0
M  END
>  <Original_Name>  (57) 
CHEMBL405234

>  <ROSHAMBO_ComboTanimoto>  (57) 
0.888

>  <ROSHAMBO_ShapeTanimoto>  (57) 
0.557

>  <ROSHAMBO_ColorTanimoto>  (57) 
0.33

>  <ROSHAMBO_FitTverskyCombo>  (57) 
1.436

>  <ROSHAMBO_FitTversky>  (57) 
0.824

>  <ROSHAMBO_FitColorTversky>  (57) 
0.612

>  <ROSHAMBO_RefTverskyCombo>  (57) 
1.05

>  <ROSHAMBO_RefTversky>  (57) 
0.633

>  <ROSHAMBO_RefColorTversky>  (57) 
0.418

>  <ROSHAMBO_Overlap>  (57) 
768.56

$$$$
CHEMBL483242_0_83
     RDKit          3D

 54 56  0  0  0  0  0  0  0  0999 V2000
    7.1932   -0.3892   -0.9565 C   0  0  0  0  0  0  0  0  0  0  0  0
    6.5773   -0.2675    0.4209 C   0  0  0  0  0  0  0  0  0  0  0  0
    5.1742    0.0221    0.2505 N   0  0  0  0  0  0  0  0  0  0  0  0
    4.1831   -1.0283    0.1557 C   0  0  0  0  0  0  0  0  0  0  0  0
    4.5715   -2.1725   -0.1748 O   0  0  0  0  0  0  0  0  0  0  0  0
    2.8237   -0.6082    0.4656 C   0  0  0  0  0  0  0  0  0  0  0  0
    2.5338    0.5246   -0.5422 C   0  0  0  0  0  0  0  0  0  0  0  0
    1.1324    0.5722   -0.5199 N   0  0  0  0  0  0  0  0  0  0  0  0
    0.6665   -0.5827   -0.1598 C   0  0  0  0  0  0  0  0  0  0  0  0
   -0.7526   -0.9540   -0.0140 C   0  0  0  0  0  0  0  0  0  0  0  0
   -1.6913   -0.0704   -0.2577 C   0  0  0  0  0  0  0  0  0  0  0  0
   -3.1233   -0.3244   -0.1468 C   0  0  0  0  0  0  0  0  0  0  0  0
   -3.6379   -1.5402    0.2325 C   0  0  0  0  0  0  0  0  0  0  0  0
   -5.0209   -1.7251    0.3212 C   0  0  0  0  0  0  0  0  0  0  0  0
   -5.9183   -0.7221    0.0397 C   0  0  0  0  0  0  0  0  0  0  0  0
   -7.2850   -0.9332    0.1359 O   0  0  0  0  0  0  0  0  0  0  0  0
   -7.7384   -2.2054    0.5308 C   0  0  0  0  0  0  0  0  0  0  0  0
   -5.3940    0.5015   -0.3422 C   0  0  0  0  0  0  0  0  0  0  0  0
   -6.3179    1.5030   -0.6225 O   0  0  0  0  0  0  0  0  0  0  0  0
   -5.9187    2.8050   -1.0244 C   0  0  0  0  0  0  0  0  0  0  0  0
   -4.0429    0.6903   -0.4313 C   0  0  0  0  0  0  0  0  0  0  0  0
    1.7524   -1.4664    0.1068 N   0  0  0  0  0  0  0  0  0  0  0  0
    1.7417   -2.8906    0.0249 C   0  0  0  0  0  0  0  0  0  0  0  0
    3.2708    1.6352   -0.0064 N   0  0  0  0  0  0  0  0  0  0  0  0
    2.7484    2.9113    0.3518 C   0  0  0  0  0  0  0  0  0  0  0  0
    2.2861    2.9888    1.7887 C   0  0  0  0  0  0  0  0  0  0  0  0
    4.6692    1.3740    0.1634 C   0  0  0  0  0  0  0  0  0  0  0  0
    5.4934    2.3376    0.2407 O   0  0  0  0  0  0  0  0  0  0  0  0
    8.2682   -0.6016   -0.8600 H   0  0  0  0  0  0  0  0  0  0  0  0
    6.7054   -1.2083   -1.5052 H   0  0  0  0  0  0  0  0  0  0  0  0
    7.0536    0.5539   -1.5052 H   0  0  0  0  0  0  0  0  0  0  0  0
    6.7007   -1.2120    0.9711 H   0  0  0  0  0  0  0  0  0  0  0  0
    7.0690    0.5330    0.9932 H   0  0  0  0  0  0  0  0  0  0  0  0
    2.8328   -0.4529    1.5545 H   0  0  0  0  0  0  0  0  0  0  0  0
    2.8360    0.4505   -1.5973 H   0  0  0  0  0  0  0  0  0  0  0  0
   -1.0247   -1.9726    0.2994 H   0  0  0  0  0  0  0  0  0  0  0  0
   -1.3751    0.9362   -0.5685 H   0  0  0  0  0  0  0  0  0  0  0  0
   -2.9583   -2.3726    0.4676 H   0  0  0  0  0  0  0  0  0  0  0  0
   -5.4052   -2.7093    0.6274 H   0  0  0  0  0  0  0  0  0  0  0  0
   -7.7589   -2.2628    1.6291 H   0  0  0  0  0  0  0  0  0  0  0  0
   -8.7514   -2.3725    0.1360 H   0  0  0  0  0  0  0  0  0  0  0  0
   -7.0594   -2.9755    0.1360 H   0  0  0  0  0  0  0  0  0  0  0  0
   -5.7296    3.4219   -0.1335 H   0  0  0  0  0  0  0  0  0  0  0  0
   -5.0000    2.7377   -1.6255 H   0  0  0  0  0  0  0  0  0  0  0  0
   -6.7174    3.2642   -1.6255 H   0  0  0  0  0  0  0  0  0  0  0  0
   -3.6650    1.6767   -0.7381 H   0  0  0  0  0  0  0  0  0  0  0  0
    1.7385   -3.3162    1.0392 H   0  0  0  0  0  0  0  0  0  0  0  0
    0.8410   -3.2202   -0.5138 H   0  0  0  0  0  0  0  0  0  0  0  0
    2.6372   -3.2337   -0.5138 H   0  0  0  0  0  0  0  0  0  0  0  0
    3.5340    3.6656    0.1972 H   0  0  0  0  0  0  0  0  0  0  0  0
    1.8681    3.0917   -0.2827 H   0  0  0  0  0  0  0  0  0  0  0  0
    3.1463    2.8446    2.4589 H   0  0  0  0  0  0  0  0  0  0  0  0
    1.8362    3.9749    1.9765 H   0  0  0  0  0  0  0  0  0  0  0  0
    1.5392    2.2033    1.9765 H   0  0  0  0  0  0  0  0  0  0  0  0
  1  2  1  0
  2  3  1  0
  3  4  1  0
  4  5  2  0
  4  6  1  0
  6  7  1  0
  7  8  1  0
  8  9  2  0
  9 10  1  0
 10 11  2  3
 11 12  1  0
 12 13  2  0
 13 14  1  0
 14 15  2  0
 15 16  1  0
 16 17  1  0
 15 18  1  0
 18 19  1  0
 19 20  1  0
 18 21  2  0
  9 22  1  0
 22 23  1  0
  7 24  1  0
 24 25  1  0
 25 26  1  0
 24 27  1  0
 27 28  2  0
 27  3  1  0
 22  6  1  0
 21 12  1  0
  1 29  1  0
  1 30  1  0
  1 31  1  0
  2 32  1  0
  2 33  1  0
  6 34  1  0
  7 35  1  0
 10 36  1  0
 11 37  1  0
 13 38  1  0
 14 39  1  0
 17 40  1  0
 17 41  1  0
 17 42  1  0
 20 43  1  0
 20 44  1  0
 20 45  1  0
 21 46  1  0
 23 47  1  0
 23 48  1  0
 23 49  1  0
 25 50  1  0
 25 51  1  0
 26 52  1  0
 26 53  1  0
 26 54  1  0
M  END
>  <Original_Name>  (58) 
CHEMBL483242

>  <ROSHAMBO_ComboTanimoto>  (58) 
0.886

>  <ROSHAMBO_ShapeTanimoto>  (58) 
0.638

>  <ROSHAMBO_ColorTanimoto>  (58) 
0.248

>  <ROSHAMBO_FitTverskyCombo>  (58) 
1.273

>  <ROSHAMBO_FitTversky>  (58) 
0.759

>  <ROSHAMBO_FitColorTversky>  (58) 
0.514

>  <ROSHAMBO_RefTverskyCombo>  (58) 
1.124

>  <ROSHAMBO_RefTversky>  (58) 
0.8

>  <ROSHAMBO_RefColorTversky>  (58) 
0.324

>  <ROSHAMBO_Overlap>  (58) 
987.983

$$$$
CHEMBL398272_1_26
     RDKit          3D

 47 50  0  0  0  0  0  0  0  0999 V2000
   -6.9254    2.1078   -1.7314 C   0  0  0  0  0  0  0  0  0  0  0  0
   -6.6894    1.1136   -0.7081 N   0  0  0  0  0  0  0  0  0  0  0  0
   -6.4521    1.7175    0.5891 C   0  0  0  0  0  0  0  0  0  0  0  0
   -5.0905    2.3262    0.5779 C   0  0  0  0  0  0  0  0  0  0  0  0
   -4.1108    1.2260    0.5177 N   0  0  0  0  0  0  0  0  0  0  0  0
   -2.8284    1.9244    0.3600 C   0  0  0  0  0  0  0  0  0  0  0  0
   -1.6710    1.0370    0.3381 C   0  0  0  0  0  0  0  0  0  0  0  0
   -1.7938   -0.2131    0.4592 O   0  0  0  0  0  0  0  0  0  0  0  0
   -0.3275    1.4874    0.1814 N   0  0  0  0  0  0  0  0  0  0  0  0
    0.7725    0.5893    0.1651 C   0  0  0  0  0  0  0  0  0  0  0  0
    2.0566    1.0616   -0.0011 C   0  0  0  0  0  0  0  0  0  0  0  0
    3.1405    0.2007   -0.0192 C   0  0  0  0  0  0  0  0  0  0  0  0
    4.4434    0.7815   -0.1983 C   0  0  0  0  0  0  0  0  0  0  0  0
    4.8896    1.9485   -0.3468 N   0  0  0  0  0  0  0  0  0  0  0  0
    6.1217    2.2879   -0.4963 C   0  0  0  0  0  0  0  0  0  0  0  0
    7.0588    1.2182   -0.4901 C   0  0  0  0  0  0  0  0  0  0  0  0
    5.9524   -0.1756   -0.2573 S   0  0  0  0  0  0  0  0  0  0  0  0
    2.9109   -1.0929    0.1281 N   0  0  0  0  0  0  0  0  0  0  0  0
    1.6723   -1.5881    0.2924 C   0  0  0  0  0  0  0  0  0  0  0  0
    1.5051   -3.0195    0.4501 C   0  0  0  0  0  0  0  0  0  0  0  0
    0.8073   -3.6180    1.4729 C   0  0  0  0  0  0  0  0  0  0  0  0
    0.8770   -4.9784    1.2736 C   0  0  0  0  0  0  0  0  0  0  0  0
    1.6262   -5.1448    0.1201 C   0  0  0  0  0  0  0  0  0  0  0  0
    1.9646   -3.9568   -0.3146 O   0  0  0  0  0  0  0  0  0  0  0  0
    0.6239   -0.7386    0.3082 N   0  0  0  0  0  0  0  0  0  0  0  0
   -4.3131    0.4038   -0.6241 C   0  0  0  0  0  0  0  0  0  0  0  0
   -5.7031    0.1511   -1.0636 C   0  0  0  0  0  0  0  0  0  0  0  0
   -7.1546    3.0739   -1.2581 H   0  0  0  0  0  0  0  0  0  0  0  0
   -6.0266    2.2102   -2.3573 H   0  0  0  0  0  0  0  0  0  0  0  0
   -7.7743    1.7954   -2.3573 H   0  0  0  0  0  0  0  0  0  0  0  0
   -7.2060    2.4952    0.7812 H   0  0  0  0  0  0  0  0  0  0  0  0
   -6.5217    0.9569    1.3807 H   0  0  0  0  0  0  0  0  0  0  0  0
   -4.9779    2.9773   -0.3015 H   0  0  0  0  0  0  0  0  0  0  0  0
   -4.9323    2.9353    1.4801 H   0  0  0  0  0  0  0  0  0  0  0  0
   -2.8532    2.4847   -0.5862 H   0  0  0  0  0  0  0  0  0  0  0  0
   -2.7118    2.5796    1.2359 H   0  0  0  0  0  0  0  0  0  0  0  0
   -0.1489    2.4964    0.0767 H   0  0  0  0  0  0  0  0  0  0  0  0
    2.2232    2.1422   -0.1216 H   0  0  0  0  0  0  0  0  0  0  0  0
    6.4300    3.3365   -0.6208 H   0  0  0  0  0  0  0  0  0  0  0  0
    8.1533    1.2392   -0.5977 H   0  0  0  0  0  0  0  0  0  0  0  0
    0.2898   -3.1051    2.2969 H   0  0  0  0  0  0  0  0  0  0  0  0
    0.4318   -5.7668    1.8983 H   0  0  0  0  0  0  0  0  0  0  0  0
    1.8900   -6.1048   -0.3477 H   0  0  0  0  0  0  0  0  0  0  0  0
   -3.7856    0.8773   -1.4652 H   0  0  0  0  0  0  0  0  0  0  0  0
   -3.9386   -0.5846   -0.3192 H   0  0  0  0  0  0  0  0  0  0  0  0
   -5.6937    0.0788   -2.1611 H   0  0  0  0  0  0  0  0  0  0  0  0
   -6.0023   -0.7656   -0.5344 H   0  0  0  0  0  0  0  0  0  0  0  0
  1  2  1  0
  2  3  1  0
  3  4  1  0
  4  5  1  0
  5  6  1  0
  6  7  1  0
  7  8  2  0
  7  9  1  0
  9 10  1  0
 10 11  2  0
 11 12  1  0
 12 13  1  0
 13 14  2  0
 14 15  1  0
 15 16  2  0
 16 17  1  0
 12 18  2  0
 18 19  1  0
 19 20  1  0
 20 21  2  0
 21 22  1  0
 22 23  2  0
 23 24  1  0
 19 25  2  0
  5 26  1  0
 26 27  1  0
 27  2  1  0
 25 10  1  0
 17 13  1  0
 24 20  1  0
  1 28  1  0
  1 29  1  0
  1 30  1  0
  3 31  1  0
  3 32  1  0
  4 33  1  0
  4 34  1  0
  6 35  1  0
  6 36  1  0
  9 37  1  0
 11 38  1  0
 15 39  1  0
 16 40  1  0
 21 41  1  0
 22 42  1  0
 23 43  1  0
 26 44  1  0
 26 45  1  0
 27 46  1  0
 27 47  1  0
M  END
>  <Original_Name>  (59) 
CHEMBL398272

>  <ROSHAMBO_ComboTanimoto>  (59) 
0.886

>  <ROSHAMBO_ShapeTanimoto>  (59) 
0.532

>  <ROSHAMBO_ColorTanimoto>  (59) 
0.354

>  <ROSHAMBO_FitTverskyCombo>  (59) 
1.254

>  <ROSHAMBO_FitTversky>  (59) 
0.683

>  <ROSHAMBO_FitColorTversky>  (59) 
0.571

>  <ROSHAMBO_RefTverskyCombo>  (59) 
1.189

>  <ROSHAMBO_RefTversky>  (59) 
0.706

>  <ROSHAMBO_RefColorTversky>  (59) 
0.482

>  <ROSHAMBO_Overlap>  (59) 
871.032

$$$$
CHEMBL77279_0_63
     RDKit          3D

 59 61  0  0  0  0  0  0  0  0999 V2000
    1.9082   -5.4167   -0.6558 C   0  0  0  0  0  0  0  0  0  0  0  0
    2.2932   -3.9660   -0.9299 C   0  0  0  0  0  0  0  0  0  0  0  0
    2.3944   -3.2746    0.4030 C   0  0  0  0  0  0  0  0  0  0  0  0
    2.7502   -1.8976    0.3162 N   0  0  0  0  0  0  0  0  0  0  0  0
    1.7484   -0.9859    0.2120 C   0  0  0  0  0  0  0  0  0  0  0  0
    1.9823    0.3677    0.1223 C   0  0  0  0  0  0  0  0  0  0  0  0
    0.8152    1.0069    0.0318 N   0  0  0  0  0  0  0  0  0  0  0  0
   -0.1792    0.1051    0.0600 C   0  0  0  0  0  0  0  0  0  0  0  0
   -1.6218    0.3697   -0.0136 C   0  0  0  0  0  0  0  0  0  0  0  0
   -2.4867   -0.6139    0.0253 C   0  0  0  0  0  0  0  0  0  0  0  0
   -3.9175   -0.3856   -0.0452 C   0  0  0  0  0  0  0  0  0  0  0  0
   -4.5120    0.8482   -0.1572 C   0  0  0  0  0  0  0  0  0  0  0  0
   -5.8996    1.0099   -0.2213 C   0  0  0  0  0  0  0  0  0  0  0  0
   -6.4773    2.2668   -0.3344 O   0  0  0  0  0  0  0  0  0  0  0  0
   -5.6227    3.3876   -0.3836 C   0  0  0  0  0  0  0  0  0  0  0  0
   -6.7280   -0.0654   -0.1744 C   0  0  0  0  0  0  0  0  0  0  0  0
   -8.0899    0.0225   -0.2321 O   0  0  0  0  0  0  0  0  0  0  0  0
   -8.9515    0.1578    0.8680 C   0  0  0  0  0  0  0  0  0  0  0  0
   -6.1563   -1.3292   -0.0610 C   0  0  0  0  0  0  0  0  0  0  0  0
   -6.9936   -2.4343   -0.0122 O   0  0  0  0  0  0  0  0  0  0  0  0
   -6.3973   -3.7107    0.1030 C   0  0  0  0  0  0  0  0  0  0  0  0
   -4.7849   -1.4689    0.0009 C   0  0  0  0  0  0  0  0  0  0  0  0
    0.3965   -1.1045    0.1697 N   0  0  0  0  0  0  0  0  0  0  0  0
    3.3237    0.7699    0.1436 C   0  0  0  0  0  0  0  0  0  0  0  0
    3.6116    1.9948    0.0653 O   0  0  0  0  0  0  0  0  0  0  0  0
    4.3128   -0.1317    0.2465 N   0  0  0  0  0  0  0  0  0  0  0  0
    5.6841    0.3099    0.2661 C   0  0  0  0  0  0  0  0  0  0  0  0
    6.2941    0.3880   -1.1197 C   0  0  0  0  0  0  0  0  0  0  0  0
    7.7330    0.8659   -0.9215 C   0  0  0  0  0  0  0  0  0  0  0  0
    4.0121   -1.4193    0.3289 C   0  0  0  0  0  0  0  0  0  0  0  0
    4.9363   -2.2575    0.4248 O   0  0  0  0  0  0  0  0  0  0  0  0
    1.8635   -5.5853    0.4303 H   0  0  0  0  0  0  0  0  0  0  0  0
    0.9237   -5.6250   -1.1001 H   0  0  0  0  0  0  0  0  0  0  0  0
    2.6599   -6.0858   -1.1001 H   0  0  0  0  0  0  0  0  0  0  0  0
    3.2613   -3.9247   -1.4506 H   0  0  0  0  0  0  0  0  0  0  0  0
    1.5434   -3.4763   -1.5686 H   0  0  0  0  0  0  0  0  0  0  0  0
    1.4190   -3.3487    0.9061 H   0  0  0  0  0  0  0  0  0  0  0  0
    3.1984   -3.7763    0.9615 H   0  0  0  0  0  0  0  0  0  0  0  0
   -1.9806    1.4058   -0.1025 H   0  0  0  0  0  0  0  0  0  0  0  0
   -2.1160   -1.6457    0.1143 H   0  0  0  0  0  0  0  0  0  0  0  0
   -3.8725    1.7422   -0.1981 H   0  0  0  0  0  0  0  0  0  0  0  0
   -5.3786    3.7078    0.6400 H   0  0  0  0  0  0  0  0  0  0  0  0
   -4.6973    3.1201   -0.9147 H   0  0  0  0  0  0  0  0  0  0  0  0
   -6.1258    4.2092   -0.9147 H   0  0  0  0  0  0  0  0  0  0  0  0
   -8.3737    0.0671    1.7996 H   0  0  0  0  0  0  0  0  0  0  0  0
   -9.4386    1.1435    0.8332 H   0  0  0  0  0  0  0  0  0  0  0  0
   -9.7173   -0.6311    0.8332 H   0  0  0  0  0  0  0  0  0  0  0  0
   -6.2784   -3.9652    1.1666 H   0  0  0  0  0  0  0  0  0  0  0  0
   -7.0384   -4.4603   -0.3839 H   0  0  0  0  0  0  0  0  0  0  0  0
   -5.4110   -3.7000   -0.3839 H   0  0  0  0  0  0  0  0  0  0  0  0
   -4.3614   -2.4802    0.0903 H   0  0  0  0  0  0  0  0  0  0  0  0
   -0.1162   -1.9967    0.2154 H   0  0  0  0  0  0  0  0  0  0  0  0
    5.7256    1.3085    0.7255 H   0  0  0  0  0  0  0  0  0  0  0  0
    6.2622   -0.4276    0.8422 H   0  0  0  0  0  0  0  0  0  0  0  0
    6.2829   -0.6024   -1.5984 H   0  0  0  0  0  0  0  0  0  0  0  0
    5.7289    1.0715   -1.7704 H   0  0  0  0  0  0  0  0  0  0  0  0
    7.9505    0.9381    0.1544 H   0  0  0  0  0  0  0  0  0  0  0  0
    8.4250    0.1493   -1.3881 H   0  0  0  0  0  0  0  0  0  0  0  0
    7.8588    1.8540   -1.3881 H   0  0  0  0  0  0  0  0  0  0  0  0
  1  2  1  0
  2  3  1  0
  3  4  1  0
  4  5  1  0
  5  6  2  0
  6  7  1  0
  7  8  2  0
  8  9  1  0
  9 10  2  3
 10 11  1  0
 11 12  2  0
 12 13  1  0
 13 14  1  0
 14 15  1  0
 13 16  2  0
 16 17  1  0
 17 18  1  0
 16 19  1  0
 19 20  1  0
 20 21  1  0
 19 22  2  0
  8 23  1  0
  6 24  1  0
 24 25  2  0
 24 26  1  0
 26 27  1  0
 27 28  1  0
 28 29  1  0
 26 30  1  0
 30 31  2  0
 30  4  1  0
 23  5  1  0
 22 11  1  0
  1 32  1  0
  1 33  1  0
  1 34  1  0
  2 35  1  0
  2 36  1  0
  3 37  1  0
  3 38  1  0
  9 39  1  0
 10 40  1  0
 12 41  1  0
 15 42  1  0
 15 43  1  0
 15 44  1  0
 18 45  1  0
 18 46  1  0
 18 47  1  0
 21 48  1  0
 21 49  1  0
 21 50  1  0
 22 51  1  0
 23 52  1  0
 27 53  1  0
 27 54  1  0
 28 55  1  0
 28 56  1  0
 29 57  1  0
 29 58  1  0
 29 59  1  0
M  END
>  <Original_Name>  (60) 
CHEMBL77279

>  <ROSHAMBO_ComboTanimoto>  (60) 
0.886

>  <ROSHAMBO_ShapeTanimoto>  (60) 
0.603

>  <ROSHAMBO_ColorTanimoto>  (60) 
0.283

>  <ROSHAMBO_FitTverskyCombo>  (60) 
1.168

>  <ROSHAMBO_FitTversky>  (60) 
0.698

>  <ROSHAMBO_FitColorTversky>  (60) 
0.47

>  <ROSHAMBO_RefTverskyCombo>  (60) 
1.231

>  <ROSHAMBO_RefTversky>  (60) 
0.815

>  <ROSHAMBO_RefColorTversky>  (60) 
0.416

>  <ROSHAMBO_Overlap>  (60) 
1012.786

$$$$
CHEMBL507754_0_51
     RDKit          3D

 51 53  0  0  0  0  0  0  0  0999 V2000
    2.0371   -3.5811    2.1827 C   0  0  0  0  0  0  0  0  0  0  0  0
    3.0608   -3.8717    1.1379 C   0  0  0  0  0  0  0  0  0  0  0  0
    2.8305   -3.2063   -0.1831 C   0  0  0  0  0  0  0  0  0  0  0  0
    2.7981   -1.7784   -0.1306 N   0  0  0  0  0  0  0  0  0  0  0  0
    1.6356   -1.1507    0.0546 C   0  0  0  0  0  0  0  0  0  0  0  0
    1.6334    0.2279    0.1103 C   0  0  0  0  0  0  0  0  0  0  0  0
    0.2953    0.6647    0.3176 N   0  0  0  0  0  0  0  0  0  0  0  0
   -0.4708   -0.4664    0.8441 C   0  0  0  0  0  0  0  0  0  0  0  0
   -1.8871   -0.2920    0.5306 C   0  0  0  0  0  0  0  0  0  0  0  0
   -2.7117   -1.2754    0.0420 C   0  0  0  0  0  0  0  0  0  0  0  0
   -4.0325   -0.9644   -0.2078 C   0  0  0  0  0  0  0  0  0  0  0  0
   -4.5132    0.3033    0.0277 C   0  0  0  0  0  0  0  0  0  0  0  0
   -6.2038    0.6823   -0.2973 S   0  0  0  0  0  6  0  0  0  0  0  0
   -6.3339    1.2459   -1.9766 C   0  0  0  0  0  0  0  0  0  0  0  0
   -6.9664   -0.6191   -0.1085 O   0  0  0  0  0  0  0  0  0  0  0  0
   -6.7234    1.7187    0.6565 O   0  0  0  0  0  0  0  0  0  0  0  0
   -3.7081    1.3119    0.5188 C   0  0  0  0  0  0  0  0  0  0  0  0
   -2.3926    1.0003    0.7670 C   0  0  0  0  0  0  0  0  0  0  0  0
    0.2264   -1.5870    0.2198 C   0  0  0  0  0  0  0  0  0  0  0  0
   -0.1223   -2.7300   -0.1592 O   0  0  0  0  0  0  0  0  0  0  0  0
    2.8444    0.9069   -0.0296 C   0  0  0  0  0  0  0  0  0  0  0  0
    2.8070    2.1647    0.0260 O   0  0  0  0  0  0  0  0  0  0  0  0
    4.0204    0.2613   -0.2178 N   0  0  0  0  0  0  0  0  0  0  0  0
    5.2364    1.0015   -0.3594 C   0  0  0  0  0  0  0  0  0  0  0  0
    5.9704    1.3016    0.8926 C   0  0  0  0  0  0  0  0  0  0  0  0
    6.3743    0.0414    1.6246 C   0  0  0  0  0  0  0  0  0  0  0  0
    3.9427   -1.0801   -0.2607 C   0  0  0  0  0  0  0  0  0  0  0  0
    4.9951   -1.7290   -0.4323 O   0  0  0  0  0  0  0  0  0  0  0  0
    2.4844   -3.7081    3.1796 H   0  0  0  0  0  0  0  0  0  0  0  0
    1.6812   -2.5465    2.0696 H   0  0  0  0  0  0  0  0  0  0  0  0
    1.1907   -4.2745    2.0696 H   0  0  0  0  0  0  0  0  0  0  0  0
    4.0388   -3.5423    1.5188 H   0  0  0  0  0  0  0  0  0  0  0  0
    3.0047   -4.9538    0.9483 H   0  0  0  0  0  0  0  0  0  0  0  0
    3.6399   -3.5066   -0.8647 H   0  0  0  0  0  0  0  0  0  0  0  0
    1.8365   -3.5290   -0.5265 H   0  0  0  0  0  0  0  0  0  0  0  0
   -0.0698    1.6094    0.1304 H   0  0  0  0  0  0  0  0  0  0  0  0
   -0.5051   -0.6019    1.9352 H   0  0  0  0  0  0  0  0  0  0  0  0
   -2.3275   -2.2889   -0.1462 H   0  0  0  0  0  0  0  0  0  0  0  0
   -4.7088   -1.7384   -0.5996 H   0  0  0  0  0  0  0  0  0  0  0  0
   -6.5813    2.3176   -1.9855 H   0  0  0  0  0  0  0  0  0  0  0  0
   -5.3754    1.0865   -2.4921 H   0  0  0  0  0  0  0  0  0  0  0  0
   -7.1256    0.6825   -2.4921 H   0  0  0  0  0  0  0  0  0  0  0  0
   -4.1027    2.3220    0.7035 H   0  0  0  0  0  0  0  0  0  0  0  0
   -1.7201    1.7777    1.1588 H   0  0  0  0  0  0  0  0  0  0  0  0
    5.9075    0.4227   -1.0111 H   0  0  0  0  0  0  0  0  0  0  0  0
    4.9397    1.9789   -0.7677 H   0  0  0  0  0  0  0  0  0  0  0  0
    6.8759    1.8752    0.6453 H   0  0  0  0  0  0  0  0  0  0  0  0
    5.3029    1.8787    1.5494 H   0  0  0  0  0  0  0  0  0  0  0  0
    6.3190    0.2139    2.7096 H   0  0  0  0  0  0  0  0  0  0  0  0
    5.6936   -0.7773    1.3483 H   0  0  0  0  0  0  0  0  0  0  0  0
    7.4042   -0.2290    1.3483 H   0  0  0  0  0  0  0  0  0  0  0  0
  1  2  1  0
  2  3  1  0
  3  4  1  0
  4  5  1  0
  5  6  2  0
  6  7  1  0
  7  8  1  0
  8  9  1  0
  9 10  2  0
 10 11  1  0
 11 12  2  0
 12 13  1  0
 13 14  1  0
 13 15  2  0
 13 16  2  0
 12 17  1  0
 17 18  2  0
  8 19  1  0
 19 20  2  0
  6 21  1  0
 21 22  2  0
 21 23  1  0
 23 24  1  0
 24 25  1  0
 25 26  1  0
 23 27  1  0
 27 28  2  0
 27  4  1  0
 19  5  1  0
 18  9  1  0
  1 29  1  0
  1 30  1  0
  1 31  1  0
  2 32  1  0
  2 33  1  0
  3 34  1  0
  3 35  1  0
  7 36  1  0
  8 37  1  0
 10 38  1  0
 11 39  1  0
 14 40  1  0
 14 41  1  0
 14 42  1  0
 17 43  1  0
 18 44  1  0
 24 45  1  0
 24 46  1  0
 25 47  1  0
 25 48  1  0
 26 49  1  0
 26 50  1  0
 26 51  1  0
M  END
>  <Original_Name>  (61) 
CHEMBL507754

>  <ROSHAMBO_ComboTanimoto>  (61) 
0.881

>  <ROSHAMBO_ShapeTanimoto>  (61) 
0.639

>  <ROSHAMBO_ColorTanimoto>  (61) 
0.242

>  <ROSHAMBO_FitTverskyCombo>  (61) 
1.205

>  <ROSHAMBO_FitTversky>  (61) 
0.761

>  <ROSHAMBO_FitColorTversky>  (61) 
0.444

>  <ROSHAMBO_RefTverskyCombo>  (61) 
1.146

>  <ROSHAMBO_RefTversky>  (61) 
0.8

>  <ROSHAMBO_RefColorTversky>  (61) 
0.347

>  <ROSHAMBO_Overlap>  (61) 
986.82

$$$$
CHEMBL267200_0_24
     RDKit          3D

 35 38  0  0  0  0  0  0  0  0999 V2000
    1.0294   -4.1312   -0.4845 N   0  0  0  0  0  0  0  0  0  0  0  0
    1.0672   -2.7694   -0.1172 C   0  0  0  0  0  0  0  0  0  0  0  0
    2.2274   -2.0950   -0.1395 N   0  0  0  0  0  0  0  0  0  0  0  0
    2.2186   -0.7992    0.2188 C   0  0  0  0  0  0  0  0  0  0  0  0
    3.4737   -0.0395    0.1996 C   0  0  0  0  0  0  0  0  0  0  0  0
    3.6689    1.2478    0.5197 N   0  0  0  0  0  0  0  0  0  0  0  0
    4.9423    1.5901    0.3779 N   0  0  0  0  0  0  0  0  0  0  0  0
    5.6330    0.5034   -0.0507 C   0  0  0  0  0  0  0  0  0  0  0  0
    4.7202   -0.5079   -0.1612 C   0  0  0  0  0  0  0  0  0  0  0  0
    1.0353   -0.2052    0.5940 C   0  0  0  0  0  0  0  0  0  0  0  0
    0.7375    1.0621    1.0064 C   0  0  0  0  0  0  0  0  0  0  0  0
   -0.5507    1.0966    1.2508 N   0  0  0  0  0  0  0  0  0  0  0  0
   -1.1588   -0.0728    1.0312 N   0  0  0  0  0  0  0  0  0  0  0  0
   -2.5303   -0.4097    1.1652 C   0  0  0  0  0  0  0  0  0  0  0  0
   -3.4394   -0.1457    0.0745 C   0  0  0  0  0  0  0  0  0  0  0  0
   -4.2852    0.9489    0.0057 C   0  0  0  0  0  0  0  0  0  0  0  0
   -5.1228    1.1720   -1.0597 C   0  0  0  0  0  0  0  0  0  0  0  0
   -5.1442    0.2832   -2.1221 C   0  0  0  0  0  0  0  0  0  0  0  0
   -4.3219   -0.7932   -2.0678 C   0  0  0  0  0  0  0  0  0  0  0  0
   -3.4764   -1.0146   -0.9881 C   0  0  0  0  0  0  0  0  0  0  0  0
   -2.7345   -2.1445   -1.0841 F   0  0  0  0  0  0  0  0  0  0  0  0
   -0.1841   -0.8941    0.6221 C   0  0  0  0  0  0  0  0  0  0  0  0
   -0.0769   -2.1859    0.2477 N   0  0  0  0  0  0  0  0  0  0  0  0
    0.1369   -4.6450   -0.4660 H   0  0  0  0  0  0  0  0  0  0  0  0
    1.8943   -4.6115   -0.7712 H   0  0  0  0  0  0  0  0  0  0  0  0
    5.3396    2.5224    0.5619 H   0  0  0  0  0  0  0  0  0  0  0  0
    6.7103    0.4476   -0.2657 H   0  0  0  0  0  0  0  0  0  0  0  0
    4.9442   -1.5344   -0.4869 H   0  0  0  0  0  0  0  0  0  0  0  0
    1.4452    1.8974    1.1135 H   0  0  0  0  0  0  0  0  0  0  0  0
   -2.5758   -1.4905    1.3646 H   0  0  0  0  0  0  0  0  0  0  0  0
   -2.8833    0.2609    1.9625 H   0  0  0  0  0  0  0  0  0  0  0  0
   -4.2861    1.6685    0.8377 H   0  0  0  0  0  0  0  0  0  0  0  0
   -5.7768    2.0564   -1.0694 H   0  0  0  0  0  0  0  0  0  0  0  0
   -5.8083    0.4460   -2.9837 H   0  0  0  0  0  0  0  0  0  0  0  0
   -4.3243   -1.5108   -2.9015 H   0  0  0  0  0  0  0  0  0  0  0  0
  1  2  1  0
  2  3  2  0
  3  4  1  0
  4  5  1  0
  5  6  2  0
  6  7  1  0
  7  8  1  0
  8  9  2  0
  4 10  2  0
 10 11  1  0
 11 12  2  0
 12 13  1  0
 13 14  1  0
 14 15  1  0
 15 16  2  0
 16 17  1  0
 17 18  2  0
 18 19  1  0
 19 20  2  0
 20 21  1  0
 13 22  1  0
 22 23  2  0
 23  2  1  0
  9  5  1  0
 22 10  1  0
 20 15  1  0
  1 24  1  0
  1 25  1  0
  7 26  1  0
  8 27  1  0
  9 28  1  0
 11 29  1  0
 14 30  1  0
 14 31  1  0
 16 32  1  0
 17 33  1  0
 18 34  1  0
 19 35  1  0
M  END
>  <Original_Name>  (62) 
CHEMBL267200

>  <ROSHAMBO_ComboTanimoto>  (62) 
0.88

>  <ROSHAMBO_ShapeTanimoto>  (62) 
0.597

>  <ROSHAMBO_ColorTanimoto>  (62) 
0.283

>  <ROSHAMBO_FitTverskyCombo>  (62) 
1.26

>  <ROSHAMBO_FitTversky>  (62) 
0.775

>  <ROSHAMBO_FitColorTversky>  (62) 
0.485

>  <ROSHAMBO_RefTverskyCombo>  (62) 
1.127

>  <ROSHAMBO_RefTversky>  (62) 
0.722

>  <ROSHAMBO_RefColorTversky>  (62) 
0.405

>  <ROSHAMBO_Overlap>  (62) 
885.524

$$$$
CHEMBL17859_0_31
     RDKit          3D

 32 34  0  0  0  0  0  0  0  0999 V2000
    4.3747    1.7562    0.2429 N   0  0  0  0  0  0  0  0  0  0  0  0
    3.5253    0.6258    0.2086 C   0  0  0  0  0  0  0  0  0  0  0  0
    2.1749    0.7870    0.4196 C   0  0  0  0  0  0  0  0  0  0  0  0
    1.4404    1.8655    0.6687 N   0  0  0  0  0  0  0  0  0  0  0  0
    0.1537    1.5085    0.8005 C   0  0  0  0  0  0  0  0  0  0  0  0
    0.0803    0.1823    0.6309 N   0  0  0  0  0  0  0  0  0  0  0  0
   -1.1287   -0.5804    0.6968 C   0  0  0  0  0  0  0  0  0  0  0  0
   -2.4910    0.5035    0.1065 S   0  0  0  0  0  0  0  0  0  0  0  0
   -3.2679   -0.6651   -1.0789 C   0  0  0  0  0  0  0  0  0  0  0  0
   -4.7627   -0.6893   -0.8437 C   0  0  0  0  0  0  0  0  0  0  0  0
   -5.2676    0.6036   -1.0417 O   0  0  0  0  0  0  0  0  0  0  0  0
   -2.6633   -1.9702   -0.5787 C   0  0  0  0  0  0  0  0  0  0  0  0
   -3.2932   -2.2854    0.6140 O   0  0  0  0  0  0  0  0  0  0  0  0
   -1.1875   -1.6824   -0.3388 C   0  0  0  0  0  0  0  0  0  0  0  0
   -0.6408   -2.8167    0.2319 O   0  0  0  0  0  0  0  0  0  0  0  0
    1.3059   -0.2995    0.3939 C   0  0  0  0  0  0  0  0  0  0  0  0
    1.8369   -1.5122    0.1551 N   0  0  0  0  0  0  0  0  0  0  0  0
    3.1642   -1.6579   -0.0505 C   0  0  0  0  0  0  0  0  0  0  0  0
    3.8780   -3.2300   -0.3636 Cl  0  0  0  0  0  0  0  0  0  0  0  0
    4.0027   -0.6011   -0.0246 N   0  0  0  0  0  0  0  0  0  0  0  0
    5.3866    1.6449    0.0861 H   0  0  0  0  0  0  0  0  0  0  0  0
    3.9814    2.6906    0.4247 H   0  0  0  0  0  0  0  0  0  0  0  0
   -0.6890    2.1837    1.0101 H   0  0  0  0  0  0  0  0  0  0  0  0
   -1.1922   -0.9661    1.7250 H   0  0  0  0  0  0  0  0  0  0  0  0
   -3.1096   -0.4417   -2.1443 H   0  0  0  0  0  0  0  0  0  0  0  0
   -5.2379   -1.3851   -1.5508 H   0  0  0  0  0  0  0  0  0  0  0  0
   -4.9763   -1.0232    0.1825 H   0  0  0  0  0  0  0  0  0  0  0  0
   -5.4343    1.0307   -0.1643 H   0  0  0  0  0  0  0  0  0  0  0  0
   -2.7833   -2.8061   -1.2836 H   0  0  0  0  0  0  0  0  0  0  0  0
   -2.7245   -2.0008    1.3728 H   0  0  0  0  0  0  0  0  0  0  0  0
   -0.6607   -1.4054   -1.2639 H   0  0  0  0  0  0  0  0  0  0  0  0
   -0.6776   -2.7403    1.2183 H   0  0  0  0  0  0  0  0  0  0  0  0
  1  2  1  0
  2  3  2  0
  3  4  1  0
  4  5  2  0
  5  6  1  0
  6  7  1  0
  7  8  1  0
  8  9  1  0
  9 10  1  0
 10 11  1  0
  9 12  1  0
 12 13  1  0
 12 14  1  0
 14 15  1  0
  6 16  1  0
 16 17  2  0
 17 18  1  0
 18 19  1  0
 18 20  2  0
 20  2  1  0
 16  3  1  0
 14  7  1  0
  1 21  1  0
  1 22  1  0
  5 23  1  0
  7 24  1  0
  9 25  1  0
 10 26  1  0
 10 27  1  0
 11 28  1  0
 12 29  1  0
 13 30  1  0
 14 31  1  0
 15 32  1  0
M  END
>  <Original_Name>  (63) 
CHEMBL17859

>  <ROSHAMBO_ComboTanimoto>  (63) 
0.876

>  <ROSHAMBO_ShapeTanimoto>  (63) 
0.607

>  <ROSHAMBO_ColorTanimoto>  (63) 
0.268

>  <ROSHAMBO_FitTverskyCombo>  (63) 
1.285

>  <ROSHAMBO_FitTversky>  (63) 
0.862

>  <ROSHAMBO_FitColorTversky>  (63) 
0.423

>  <ROSHAMBO_RefTverskyCombo>  (63) 
1.096

>  <ROSHAMBO_RefTversky>  (63) 
0.673

>  <ROSHAMBO_RefColorTversky>  (63) 
0.423

>  <ROSHAMBO_Overlap>  (63) 
817.827

$$$$
CHEMBL122806_0_17
     RDKit          3D

 37 39  0  0  0  0  0  0  0  0999 V2000
    3.9958   -3.4531   -0.3180 N   0  0  0  0  0  0  0  0  0  0  0  0
    2.9478   -2.7700   -0.3034 C   0  0  0  0  0  0  0  0  0  0  0  0
    1.6807   -1.9702   -0.2779 C   0  0  0  0  0  0  0  0  0  0  0  0
    1.8103   -0.7414    0.1393 C   0  0  0  0  0  0  0  0  0  0  0  0
    3.1292   -0.1336    0.3316 C   0  0  0  0  0  0  0  0  0  0  0  0
    4.0016   -0.6795    1.2422 C   0  0  0  0  0  0  0  0  0  0  0  0
    5.3044   -0.4204    1.3549 C   0  0  0  0  0  0  0  0  0  0  0  0
    5.9224    0.5616    0.4369 C   0  0  0  0  0  0  0  0  0  0  0  0
    5.0467    1.1015   -0.4420 C   0  0  0  0  0  0  0  0  0  0  0  0
    5.5478    2.0392   -1.3926 O   0  0  0  0  0  0  0  0  0  0  0  0
    3.6645    0.8288   -0.5614 C   0  0  0  0  0  0  0  0  0  0  0  0
    0.5807    0.0505    0.4332 C   0  0  0  0  0  0  0  0  0  0  0  0
    0.8514    1.4347    0.7039 C   0  0  0  0  0  0  0  0  0  0  0  0
    1.0725    2.6821    0.9442 N   0  0  0  0  0  0  0  0  0  0  0  0
   -0.5013   -0.7142    0.1837 C   0  0  0  0  0  0  0  0  0  0  0  0
   -2.0605    0.3072    0.4638 S   0  0  0  0  0  0  0  0  0  0  0  0
   -3.4597   -0.7622    0.2412 C   0  0  0  0  0  0  0  0  0  0  0  0
   -4.7382   -0.0747    0.0246 C   0  0  0  0  0  0  0  0  0  0  0  0
   -5.6992    0.1480    0.8652 N   0  0  0  0  0  0  0  0  0  0  0  0
   -6.7462    0.7757    0.2213 C   0  0  0  0  0  0  0  0  0  0  0  0
   -6.3406    0.9028   -1.0908 C   0  0  0  0  0  0  0  0  0  0  0  0
   -5.1377    0.4003   -1.2015 N   0  0  0  0  0  0  0  0  0  0  0  0
   -0.6016   -1.9318   -0.2378 N   0  0  0  0  0  0  0  0  0  0  0  0
    0.5288   -2.6203   -0.4934 C   0  0  0  0  0  0  0  0  0  0  0  0
    0.6044   -3.9020   -1.1273 N   0  0  0  0  0  0  0  0  0  0  0  0
    3.5809   -1.4064    1.9525 H   0  0  0  0  0  0  0  0  0  0  0  0
    5.9107   -0.9289    2.1189 H   0  0  0  0  0  0  0  0  0  0  0  0
    6.9896    0.8268    0.4660 H   0  0  0  0  0  0  0  0  0  0  0  0
    4.9343    2.4533   -2.0501 H   0  0  0  0  0  0  0  0  0  0  0  0
    3.0370    1.3369   -1.3084 H   0  0  0  0  0  0  0  0  0  0  0  0
   -3.2644   -1.4022   -0.6319 H   0  0  0  0  0  0  0  0  0  0  0  0
   -3.5687   -1.3249    1.1800 H   0  0  0  0  0  0  0  0  0  0  0  0
   -7.6997    1.1041    0.6604 H   0  0  0  0  0  0  0  0  0  0  0  0
   -6.9285    1.3506   -1.9056 H   0  0  0  0  0  0  0  0  0  0  0  0
   -4.5806    0.3661   -2.0671 H   0  0  0  0  0  0  0  0  0  0  0  0
    1.5202   -4.3484   -1.2788 H   0  0  0  0  0  0  0  0  0  0  0  0
   -0.2570   -4.3776   -1.4318 H   0  0  0  0  0  0  0  0  0  0  0  0
  1  2  3  0
  2  3  1  0
  3  4  2  0
  4  5  1  0
  5  6  2  0
  6  7  1  0
  7  8  2  0
  8  9  1  0
  9 10  1  0
  9 11  2  0
  4 12  1  0
 12 13  1  0
 13 14  3  0
 12 15  2  0
 15 16  1  0
 16 17  1  0
 17 18  1  0
 18 19  2  0
 19 20  1  0
 20 21  2  0
 21 22  1  0
 15 23  1  0
 23 24  2  0
 24 25  1  0
 24  3  1  0
 11  5  1  0
 22 18  1  0
  6 26  1  0
  7 27  1  0
  8 28  1  0
 10 29  1  0
 11 30  1  0
 17 31  1  0
 17 32  1  0
 20 33  1  0
 21 34  1  0
 22 35  1  0
 25 36  1  0
 25 37  1  0
M  END
>  <Original_Name>  (64) 
CHEMBL122806

>  <ROSHAMBO_ComboTanimoto>  (64) 
0.873

>  <ROSHAMBO_ShapeTanimoto>  (64) 
0.664

>  <ROSHAMBO_ColorTanimoto>  (64) 
0.208

>  <ROSHAMBO_FitTverskyCombo>  (64) 
1.196

>  <ROSHAMBO_FitTversky>  (64) 
0.821

>  <ROSHAMBO_FitColorTversky>  (64) 
0.375

>  <ROSHAMBO_RefTverskyCombo>  (64) 
1.096

>  <ROSHAMBO_RefTversky>  (64) 
0.777

>  <ROSHAMBO_RefColorTversky>  (64) 
0.319

>  <ROSHAMBO_Overlap>  (64) 
953.189

$$$$
CHEMBL16687_0_15
     RDKit          3D

 28 31  0  0  0  0  0  0  0  0999 V2000
    0.8572   -3.5663   -0.1373 N   0  0  0  0  0  0  0  0  0  0  0  0
    1.1764   -2.1712   -0.0489 C   0  0  0  0  0  0  0  0  0  0  0  0
    2.4378   -1.7577    0.0363 N   0  0  0  0  0  0  0  0  0  0  0  0
    2.6468   -0.4120    0.1166 C   0  0  0  0  0  0  0  0  0  0  0  0
    3.9653    0.0156    0.2055 C   0  0  0  0  0  0  0  0  0  0  0  0
    4.2627    1.3523    0.2898 C   0  0  0  0  0  0  0  0  0  0  0  0
    3.1833    2.2163    0.2799 C   0  0  0  0  0  0  0  0  0  0  0  0
    3.5646    3.9391    0.3884 Cl  0  0  0  0  0  0  0  0  0  0  0  0
    1.8753    1.8180    0.1931 C   0  0  0  0  0  0  0  0  0  0  0  0
    1.5938    0.4779    0.1095 C   0  0  0  0  0  0  0  0  0  0  0  0
    0.2933   -0.0014    0.0188 C   0  0  0  0  0  0  0  0  0  0  0  0
   -0.8982    0.6110   -0.0097 N   0  0  0  0  0  0  0  0  0  0  0  0
   -1.8591   -0.3484   -0.1080 C   0  0  0  0  0  0  0  0  0  0  0  0
   -3.3084   -0.1339   -0.1702 C   0  0  0  0  0  0  0  0  0  0  0  0
   -3.9996    0.5831   -1.1186 C   0  0  0  0  0  0  0  0  0  0  0  0
   -5.3349    0.5174   -0.7822 C   0  0  0  0  0  0  0  0  0  0  0  0
   -5.4177   -0.2389    0.3630 C   0  0  0  0  0  0  0  0  0  0  0  0
   -4.1981   -0.5895    0.6695 O   0  0  0  0  0  0  0  0  0  0  0  0
   -1.2008   -1.5094   -0.1349 N   0  0  0  0  0  0  0  0  0  0  0  0
    0.1080   -1.3297   -0.0593 N   0  0  0  0  0  0  0  0  0  0  0  0
   -0.1259   -3.8665   -0.2026 H   0  0  0  0  0  0  0  0  0  0  0  0
    1.6110   -4.2682   -0.1356 H   0  0  0  0  0  0  0  0  0  0  0  0
    4.7789   -0.7246    0.2083 H   0  0  0  0  0  0  0  0  0  0  0  0
    5.2987    1.7151    0.3610 H   0  0  0  0  0  0  0  0  0  0  0  0
    1.0639    2.5607    0.1906 H   0  0  0  0  0  0  0  0  0  0  0  0
   -3.5682    1.1098   -1.9826 H   0  0  0  0  0  0  0  0  0  0  0  0
   -6.1722    0.9805   -1.3249 H   0  0  0  0  0  0  0  0  0  0  0  0
   -6.3337   -0.4983    0.9140 H   0  0  0  0  0  0  0  0  0  0  0  0
  1  2  1  0
  2  3  2  0
  3  4  1  0
  4  5  2  0
  5  6  1  0
  6  7  2  0
  7  8  1  0
  7  9  1  0
  9 10  2  0
 10 11  1  0
 11 12  2  0
 12 13  1  0
 13 14  1  0
 14 15  2  0
 15 16  1  0
 16 17  2  0
 17 18  1  0
 13 19  2  0
 19 20  1  0
 20  2  1  0
 10  4  1  0
 20 11  1  0
 18 14  1  0
  1 21  1  0
  1 22  1  0
  5 23  1  0
  6 24  1  0
  9 25  1  0
 15 26  1  0
 16 27  1  0
 17 28  1  0
M  END
>  <Original_Name>  (65) 
CHEMBL16687

>  <ROSHAMBO_ComboTanimoto>  (65) 
0.865

>  <ROSHAMBO_ShapeTanimoto>  (65) 
0.571

>  <ROSHAMBO_ColorTanimoto>  (65) 
0.295

>  <ROSHAMBO_FitTverskyCombo>  (65) 
1.312

>  <ROSHAMBO_FitTversky>  (65) 
0.802

>  <ROSHAMBO_FitColorTversky>  (65) 
0.509

>  <ROSHAMBO_RefTverskyCombo>  (65) 
1.076

>  <ROSHAMBO_RefTversky>  (65) 
0.664

>  <ROSHAMBO_RefColorTversky>  (65) 
0.412

>  <ROSHAMBO_Overlap>  (65) 
809.06

$$$$
CHEMBL209366_0_64
     RDKit          3D

 49 52  0  0  0  0  0  0  0  0999 V2000
    7.6840   -1.7375    0.0365 C   0  0  0  0  0  0  0  0  0  0  0  0
    8.0944   -0.3060   -0.1730 C   0  0  0  0  0  0  0  0  0  0  0  0
    7.1733    0.4528   -1.0705 C   0  0  0  0  0  0  0  0  0  0  0  0
    5.8160    0.5211   -0.5878 N   0  0  0  0  0  0  0  0  0  0  0  0
    5.4587    1.5516    0.2137 C   0  0  0  0  0  0  0  0  0  0  0  0
    6.3302    2.4269    0.5163 O   0  0  0  0  0  0  0  0  0  0  0  0
    4.2407    1.7153    0.7146 N   0  0  0  0  0  0  0  0  0  0  0  0
    3.2787    0.7958    0.4117 C   0  0  0  0  0  0  0  0  0  0  0  0
    3.5668   -0.2870   -0.4024 C   0  0  0  0  0  0  0  0  0  0  0  0
    2.4419   -1.0137   -0.5245 N   0  0  0  0  0  0  0  0  0  0  0  0
    1.4540   -0.4379    0.1770 C   0  0  0  0  0  0  0  0  0  0  0  0
    1.9821    0.6617    0.7395 N   0  0  0  0  0  0  0  0  0  0  0  0
    0.0694   -0.8954    0.3178 C   0  0  0  0  0  0  0  0  0  0  0  0
   -0.8445   -0.1965    1.0775 C   0  0  0  0  0  0  0  0  0  0  0  0
   -2.1485   -0.6312    1.2075 C   0  0  0  0  0  0  0  0  0  0  0  0
   -2.6073   -1.7785    0.5907 C   0  0  0  0  0  0  0  0  0  0  0  0
   -1.6885   -2.4751   -0.1691 C   0  0  0  0  0  0  0  0  0  0  0  0
   -0.3844   -2.0418   -0.3000 C   0  0  0  0  0  0  0  0  0  0  0  0
   -4.2542   -2.3444    0.7437 S   0  0  0  0  0  6  0  0  0  0  0  0
   -4.8475   -2.0428    2.0886 O   0  0  0  0  0  0  0  0  0  0  0  0
   -4.3084   -3.8625    0.6145 O   0  0  0  0  0  0  0  0  0  0  0  0
   -5.2802   -1.7164   -0.4605 N   0  0  0  0  0  0  0  0  0  0  0  0
   -5.4739   -0.2958   -0.5383 C   0  0  0  0  0  0  0  0  0  0  0  0
   -5.4136    0.3302   -1.7887 C   0  0  0  0  0  0  0  0  0  0  0  0
   -5.5972    1.6910   -1.8682 C   0  0  0  0  0  0  0  0  0  0  0  0
   -5.8401    2.4816   -0.7727 C   0  0  0  0  0  0  0  0  0  0  0  0
   -5.9002    1.8707    0.4575 C   0  0  0  0  0  0  0  0  0  0  0  0
   -5.7174    0.4915    0.5654 C   0  0  0  0  0  0  0  0  0  0  0  0
    4.8637   -0.3804   -0.8819 C   0  0  0  0  0  0  0  0  0  0  0  0
    5.1543   -1.3539   -1.6240 O   0  0  0  0  0  0  0  0  0  0  0  0
    7.6237   -1.9476    1.1145 H   0  0  0  0  0  0  0  0  0  0  0  0
    6.7006   -1.9084   -0.4259 H   0  0  0  0  0  0  0  0  0  0  0  0
    8.4274   -2.4035   -0.4259 H   0  0  0  0  0  0  0  0  0  0  0  0
    8.1188    0.1959    0.8055 H   0  0  0  0  0  0  0  0  0  0  0  0
    9.0809   -0.3203   -0.6595 H   0  0  0  0  0  0  0  0  0  0  0  0
    7.5567    1.4786   -1.1738 H   0  0  0  0  0  0  0  0  0  0  0  0
    7.1455   -0.0849   -2.0297 H   0  0  0  0  0  0  0  0  0  0  0  0
    4.0257    2.5203    1.3201 H   0  0  0  0  0  0  0  0  0  0  0  0
    1.4623    1.3154    1.3423 H   0  0  0  0  0  0  0  0  0  0  0  0
   -0.5289    0.7245    1.5896 H   0  0  0  0  0  0  0  0  0  0  0  0
   -2.8456   -0.0439    1.8232 H   0  0  0  0  0  0  0  0  0  0  0  0
   -2.0028   -3.3962   -0.6816 H   0  0  0  0  0  0  0  0  0  0  0  0
    0.3136   -2.6283   -0.9154 H   0  0  0  0  0  0  0  0  0  0  0  0
   -5.7548   -2.3459   -1.1233 H   0  0  0  0  0  0  0  0  0  0  0  0
   -5.2216   -0.2593   -2.6973 H   0  0  0  0  0  0  0  0  0  0  0  0
   -5.5470    2.1690   -2.8577 H   0  0  0  0  0  0  0  0  0  0  0  0
   -5.9819    3.5675   -0.8756 H   0  0  0  0  0  0  0  0  0  0  0  0
   -6.0929    2.4707    1.3591 H   0  0  0  0  0  0  0  0  0  0  0  0
   -5.7690    0.0206    1.5581 H   0  0  0  0  0  0  0  0  0  0  0  0
  1  2  1  0
  2  3  1  0
  3  4  1  0
  4  5  1  0
  5  6  2  0
  5  7  1  0
  7  8  1  0
  8  9  2  0
  9 10  1  0
 10 11  2  0
 11 12  1  0
 11 13  1  0
 13 14  2  0
 14 15  1  0
 15 16  2  0
 16 17  1  0
 17 18  2  0
 16 19  1  0
 19 20  2  0
 19 21  2  0
 19 22  1  0
 22 23  1  0
 23 24  2  0
 24 25  1  0
 25 26  2  0
 26 27  1  0
 27 28  2  0
  9 29  1  0
 29 30  2  0
 29  4  1  0
 12  8  1  0
 18 13  1  0
 28 23  1  0
  1 31  1  0
  1 32  1  0
  1 33  1  0
  2 34  1  0
  2 35  1  0
  3 36  1  0
  3 37  1  0
  7 38  1  0
 12 39  1  0
 14 40  1  0
 15 41  1  0
 17 42  1  0
 18 43  1  0
 22 44  1  0
 24 45  1  0
 25 46  1  0
 26 47  1  0
 27 48  1  0
 28 49  1  0
M  END
>  <Original_Name>  (66) 
CHEMBL209366

>  <ROSHAMBO_ComboTanimoto>  (66) 
0.865

>  <ROSHAMBO_ShapeTanimoto>  (66) 
0.654

>  <ROSHAMBO_ColorTanimoto>  (66) 
0.21

>  <ROSHAMBO_FitTverskyCombo>  (66) 
1.086

>  <ROSHAMBO_FitTversky>  (66) 
0.743

>  <ROSHAMBO_FitColorTversky>  (66) 
0.343

>  <ROSHAMBO_RefTverskyCombo>  (66) 
1.197

>  <ROSHAMBO_RefTversky>  (66) 
0.846

>  <ROSHAMBO_RefColorTversky>  (66) 
0.352

>  <ROSHAMBO_Overlap>  (66) 
1048.656

$$$$
CHEMBL330982_0_6
     RDKit          3D

 36 40  0  0  0  0  0  0  0  0999 V2000
    3.6211   -1.6506   -0.0089 N   0  0  0  0  0  0  0  0  0  0  0  0
    2.2897   -1.5261    0.1031 N   0  0  0  0  0  0  0  0  0  0  0  0
    1.9837   -0.2183    0.1842 C   0  0  0  0  0  0  0  0  0  0  0  0
    3.1600    0.4313    0.1181 N   0  0  0  0  0  0  0  0  0  0  0  0
    4.1704   -0.4291   -0.0001 C   0  0  0  0  0  0  0  0  0  0  0  0
    5.5934   -0.0784   -0.0988 C   0  0  0  0  0  0  0  0  0  0  0  0
    6.5487   -1.0789   -0.2186 C   0  0  0  0  0  0  0  0  0  0  0  0
    7.8977   -0.7477   -0.3123 C   0  0  0  0  0  0  0  0  0  0  0  0
    8.2829    0.5671   -0.2863 C   0  0  0  0  0  0  0  0  0  0  0  0
    7.3199    1.5314   -0.1675 C   0  0  0  0  0  0  0  0  0  0  0  0
    5.9714    1.2455   -0.0719 C   0  0  0  0  0  0  0  0  0  0  0  0
    0.6834    0.2259    0.3076 C   0  0  0  0  0  0  0  0  0  0  0  0
    0.0797    1.4220    0.4076 N   0  0  0  0  0  0  0  0  0  0  0  0
   -1.2610    1.2596    0.5080 C   0  0  0  0  0  0  0  0  0  0  0  0
   -1.5487   -0.0686    0.4736 N   0  0  0  0  0  0  0  0  0  0  0  0
   -0.4026   -0.7594    0.3519 C   0  0  0  0  0  0  0  0  0  0  0  0
   -0.0216   -2.0458    0.2658 N   0  0  0  0  0  0  0  0  0  0  0  0
    1.2743   -2.4062    0.1464 C   0  0  0  0  0  0  0  0  0  0  0  0
    1.5495   -3.8336    0.0626 C   0  0  0  0  0  0  0  0  0  0  0  0
    1.0064   -4.6647    1.0206 C   0  0  0  0  0  0  0  0  0  0  0  0
    1.2532   -6.0244    0.9627 C   0  0  0  0  0  0  0  0  0  0  0  0
    2.0343   -6.5232   -0.0469 C   0  0  0  0  0  0  0  0  0  0  0  0
    2.5732   -5.6733   -1.0030 C   0  0  0  0  0  0  0  0  0  0  0  0
    2.3339   -4.3066   -0.9574 C   0  0  0  0  0  0  0  0  0  0  0  0
    4.1359   -2.5392   -0.0886 H   0  0  0  0  0  0  0  0  0  0  0  0
    6.2394   -2.1343   -0.2394 H   0  0  0  0  0  0  0  0  0  0  0  0
    8.6539   -1.5409   -0.4071 H   0  0  0  0  0  0  0  0  0  0  0  0
    9.3456    0.8417   -0.3595 H   0  0  0  0  0  0  0  0  0  0  0  0
    7.6342    2.5853   -0.1471 H   0  0  0  0  0  0  0  0  0  0  0  0
    5.2252    2.0482    0.0226 H   0  0  0  0  0  0  0  0  0  0  0  0
   -1.9978    2.0709    0.6021 H   0  0  0  0  0  0  0  0  0  0  0  0
    0.3815   -4.2490    1.8247 H   0  0  0  0  0  0  0  0  0  0  0  0
    0.8267   -6.6989    1.7198 H   0  0  0  0  0  0  0  0  0  0  0  0
    2.2353   -7.6033   -0.1000 H   0  0  0  0  0  0  0  0  0  0  0  0
    3.1982   -6.0882   -1.8075 H   0  0  0  0  0  0  0  0  0  0  0  0
    2.7581   -3.6280   -1.7120 H   0  0  0  0  0  0  0  0  0  0  0  0
  1  2  1  0
  2  3  1  0
  3  4  1  0
  4  5  2  0
  5  6  1  0
  6  7  2  0
  7  8  1  0
  8  9  2  0
  9 10  1  0
 10 11  2  0
  3 12  2  0
 12 13  1  0
 13 14  2  0
 14 15  1  0
 15 16  2  0
 16 17  1  0
 17 18  2  0
 18 19  1  0
 19 20  2  0
 20 21  1  0
 21 22  2  0
 22 23  1  0
 23 24  2  0
  5  1  1  0
 11  6  1  0
 16 12  1  0
 24 19  1  0
 18  2  1  0
  1 25  1  0
  7 26  1  0
  8 27  1  0
  9 28  1  0
 10 29  1  0
 11 30  1  0
 14 31  1  0
 20 32  1  0
 21 33  1  0
 22 34  1  0
 23 35  1  0
 24 36  1  0
M  END
>  <Original_Name>  (67) 
CHEMBL330982

>  <ROSHAMBO_ComboTanimoto>  (67) 
0.865

>  <ROSHAMBO_ShapeTanimoto>  (67) 
0.495

>  <ROSHAMBO_ColorTanimoto>  (67) 
0.369

>  <ROSHAMBO_FitTverskyCombo>  (67) 
1.238

>  <ROSHAMBO_FitTversky>  (67) 
0.669

>  <ROSHAMBO_FitColorTversky>  (67) 
0.569

>  <ROSHAMBO_RefTverskyCombo>  (67) 
1.169

>  <ROSHAMBO_RefTversky>  (67) 
0.656

>  <ROSHAMBO_RefColorTversky>  (67) 
0.513

>  <ROSHAMBO_Overlap>  (67) 
806.937

$$$$
CHEMBL507754_0_67
     RDKit          3D

 51 53  0  0  0  0  0  0  0  0999 V2000
    1.7863   -5.5948   -1.2666 C   0  0  0  0  0  0  0  0  0  0  0  0
    2.0400   -4.0883   -1.2369 C   0  0  0  0  0  0  0  0  0  0  0  0
    1.9431   -3.6166    0.2116 C   0  0  0  0  0  0  0  0  0  0  0  0
    2.1843   -2.1990    0.2176 N   0  0  0  0  0  0  0  0  0  0  0  0
    1.1382   -1.3668    0.0790 C   0  0  0  0  0  0  0  0  0  0  0  0
    1.3371    0.0184    0.0804 C   0  0  0  0  0  0  0  0  0  0  0  0
    0.0833    0.6669   -0.0807 N   0  0  0  0  0  0  0  0  0  0  0  0
   -0.8094   -0.3055   -0.6774 C   0  0  0  0  0  0  0  0  0  0  0  0
   -2.2151   -0.0573   -0.3750 C   0  0  0  0  0  0  0  0  0  0  0  0
   -3.1393   -0.1480   -1.3919 C   0  0  0  0  0  0  0  0  0  0  0  0
   -4.4780    0.0645   -1.2188 C   0  0  0  0  0  0  0  0  0  0  0  0
   -4.9336    0.3900    0.0522 C   0  0  0  0  0  0  0  0  0  0  0  0
   -6.6455    0.6560    0.2460 S   0  0  0  0  0  6  0  0  0  0  0  0
   -7.5051   -0.8475    0.6544 C   0  0  0  0  0  0  0  0  0  0  0  0
   -7.2794    1.2136   -0.9967 O   0  0  0  0  0  0  0  0  0  0  0  0
   -6.8724    1.6774    1.3460 O   0  0  0  0  0  0  0  0  0  0  0  0
   -4.0350    0.4873    1.0846 C   0  0  0  0  0  0  0  0  0  0  0  0
   -2.6862    0.2694    0.8918 C   0  0  0  0  0  0  0  0  0  0  0  0
   -0.2959   -1.5699   -0.0889 C   0  0  0  0  0  0  0  0  0  0  0  0
   -0.8861   -2.6209    0.2244 O   0  0  0  0  0  0  0  0  0  0  0  0
    2.6415    0.4544    0.2296 C   0  0  0  0  0  0  0  0  0  0  0  0
    2.8639    1.6951    0.2362 O   0  0  0  0  0  0  0  0  0  0  0  0
    3.6834   -0.3842    0.3678 N   0  0  0  0  0  0  0  0  0  0  0  0
    5.0389    0.0516    0.5231 C   0  0  0  0  0  0  0  0  0  0  0  0
    5.6819    0.1805   -0.8488 C   0  0  0  0  0  0  0  0  0  0  0  0
    7.1181    0.6392   -0.7404 C   0  0  0  0  0  0  0  0  0  0  0  0
    3.4248   -1.7025    0.3581 C   0  0  0  0  0  0  0  0  0  0  0  0
    4.3730   -2.5295    0.4850 O   0  0  0  0  0  0  0  0  0  0  0  0
    1.7220   -5.9762   -0.2369 H   0  0  0  0  0  0  0  0  0  0  0  0
    0.8414   -5.7972   -1.7922 H   0  0  0  0  0  0  0  0  0  0  0  0
    2.6127   -6.0955   -1.7922 H   0  0  0  0  0  0  0  0  0  0  0  0
    3.0433   -3.8718   -1.6327 H   0  0  0  0  0  0  0  0  0  0  0  0
    1.2970   -3.5656   -1.8572 H   0  0  0  0  0  0  0  0  0  0  0  0
    0.9402   -3.8293    0.6103 H   0  0  0  0  0  0  0  0  0  0  0  0
    2.6786   -4.1391    0.8409 H   0  0  0  0  0  0  0  0  0  0  0  0
   -0.1459    1.6376    0.1764 H   0  0  0  0  0  0  0  0  0  0  0  0
   -0.8077   -0.2953   -1.7774 H   0  0  0  0  0  0  0  0  0  0  0  0
   -2.7800   -0.4057   -2.3991 H   0  0  0  0  0  0  0  0  0  0  0  0
   -5.1767   -0.0200   -2.0642 H   0  0  0  0  0  0  0  0  0  0  0  0
   -7.5641   -0.9506    1.7480 H   0  0  0  0  0  0  0  0  0  0  0  0
   -8.5210   -0.8148    0.2339 H   0  0  0  0  0  0  0  0  0  0  0  0
   -6.9616   -1.7064    0.2339 H   0  0  0  0  0  0  0  0  0  0  0  0
   -4.3987    0.7453    2.0901 H   0  0  0  0  0  0  0  0  0  0  0  0
   -1.9868    0.3537    1.7366 H   0  0  0  0  0  0  0  0  0  0  0  0
    5.0560    1.0273    1.0307 H   0  0  0  0  0  0  0  0  0  0  0  0
    5.5963   -0.6807    1.1256 H   0  0  0  0  0  0  0  0  0  0  0  0
    5.6550   -0.7980   -1.3506 H   0  0  0  0  0  0  0  0  0  0  0  0
    5.1205    0.9293   -1.4268 H   0  0  0  0  0  0  0  0  0  0  0  0
    7.3957    0.7278    0.3203 H   0  0  0  0  0  0  0  0  0  0  0  0
    7.7752   -0.0938   -1.2313 H   0  0  0  0  0  0  0  0  0  0  0  0
    7.2287    1.6174   -1.2313 H   0  0  0  0  0  0  0  0  0  0  0  0
  1  2  1  0
  2  3  1  0
  3  4  1  0
  4  5  1  0
  5  6  2  0
  6  7  1  0
  7  8  1  0
  8  9  1  0
  9 10  2  0
 10 11  1  0
 11 12  2  0
 12 13  1  0
 13 14  1  0
 13 15  2  0
 13 16  2  0
 12 17  1  0
 17 18  2  0
  8 19  1  0
 19 20  2  0
  6 21  1  0
 21 22  2  0
 21 23  1  0
 23 24  1  0
 24 25  1  0
 25 26  1  0
 23 27  1  0
 27 28  2  0
 27  4  1  0
 19  5  1  0
 18  9  1  0
  1 29  1  0
  1 30  1  0
  1 31  1  0
  2 32  1  0
  2 33  1  0
  3 34  1  0
  3 35  1  0
  7 36  1  0
  8 37  1  0
 10 38  1  0
 11 39  1  0
 14 40  1  0
 14 41  1  0
 14 42  1  0
 17 43  1  0
 18 44  1  0
 24 45  1  0
 24 46  1  0
 25 47  1  0
 25 48  1  0
 26 49  1  0
 26 50  1  0
 26 51  1  0
M  END
>  <Original_Name>  (68) 
CHEMBL507754

>  <ROSHAMBO_ComboTanimoto>  (68) 
0.864

>  <ROSHAMBO_ShapeTanimoto>  (68) 
0.628

>  <ROSHAMBO_ColorTanimoto>  (68) 
0.237

>  <ROSHAMBO_FitTverskyCombo>  (68) 
1.19

>  <ROSHAMBO_FitTversky>  (68) 
0.754

>  <ROSHAMBO_FitColorTversky>  (68) 
0.436

>  <ROSHAMBO_RefTverskyCombo>  (68) 
1.131

>  <ROSHAMBO_RefTversky>  (68) 
0.789

>  <ROSHAMBO_RefColorTversky>  (68) 
0.341

>  <ROSHAMBO_Overlap>  (68) 
973.715

$$$$
CHEMBL608029_0_61
     RDKit          3D

 53 56  0  0  0  0  0  0  0  0999 V2000
   -8.8075    1.4213   -0.7091 C   0  0  0  0  0  0  0  0  0  0  0  0
   -7.9665    0.7938    0.4436 C   0  0  0  0  0  0  0  0  0  0  0  0
   -7.0943    1.9396    0.9311 C   0  0  0  0  0  0  0  0  0  0  0  0
   -6.1512    2.3458   -0.2540 C   0  0  0  0  0  0  0  0  0  0  0  0
   -5.1548    1.3861   -0.3438 C   0  0  0  0  0  0  0  0  0  0  0  0
   -4.1999    0.4797   -0.4082 C   0  0  0  0  0  0  0  0  0  0  0  0
   -3.1962   -0.4688   -0.4821 C   0  0  0  0  0  0  0  0  0  0  0  0
   -3.4634   -1.8980   -0.3848 N   0  0  0  0  0  0  0  0  0  0  0  0
   -2.5270   -2.7534   -0.1113 C   0  0  0  0  0  0  0  0  0  0  0  0
   -2.8833   -4.1705   -0.0724 N   0  0  0  0  0  0  0  0  0  0  0  0
   -1.1755   -2.4989    0.1242 C   0  0  0  0  0  0  0  0  0  0  0  0
   -0.1085   -2.9281    0.3779 N   0  0  0  0  0  0  0  0  0  0  0  0
    0.9895   -2.2826    0.4951 C   0  0  0  0  0  0  0  0  0  0  0  0
    0.4164   -0.8967    0.2201 N   0  0  0  0  0  0  0  0  0  0  0  0
    1.3349    0.1171    0.0534 C   0  0  0  0  0  0  0  0  0  0  0  0
    2.6770   -0.3464   -0.2731 O   0  0  0  0  0  0  0  0  0  0  0  0
    3.3913    0.7679   -0.5370 C   0  0  2  0  0  0  0  0  0  0  0  0
    4.8050    0.7508   -0.2715 C   0  0  0  0  0  0  0  0  0  0  0  0
    5.2967    1.9883   -0.6127 O   0  0  0  0  0  0  0  0  0  0  0  0
    5.7704   -0.0411    0.1787 N   0  0  0  0  0  0  0  0  0  0  0  0
    7.1927    0.3276    0.3067 C   0  0  0  0  0  0  0  0  0  0  0  0
    8.0097   -0.1810   -0.9359 C   0  0  0  0  0  0  0  0  0  0  0  0
    8.2768   -0.6094    0.4505 C   0  0  0  0  0  0  0  0  0  0  0  0
    2.7860    1.8946    0.3009 C   0  0  1  0  0  0  0  0  0  0  0  0
    2.3053    2.9350   -0.4658 O   0  0  0  0  0  0  0  0  0  0  0  0
    1.6148    1.1800    1.0274 C   0  0  1  0  0  0  0  0  0  0  0  0
    0.6206    2.1217    1.1979 O   0  0  0  0  0  0  0  0  0  0  0  0
   -0.8797   -0.9922    0.0066 C   0  0  0  0  0  0  0  0  0  0  0  0
   -1.8798   -0.3835   -0.2526 N   0  0  0  0  0  0  0  0  0  0  0  0
   -9.6200    2.0276   -0.2822 H   0  0  0  0  0  0  0  0  0  0  0  0
   -8.1608    2.0594   -1.3294 H   0  0  0  0  0  0  0  0  0  0  0  0
   -9.2351    0.6198   -1.3294 H   0  0  0  0  0  0  0  0  0  0  0  0
   -8.6198    0.4296    1.2502 H   0  0  0  0  0  0  0  0  0  0  0  0
   -7.3777   -0.0744    0.1128 H   0  0  0  0  0  0  0  0  0  0  0  0
   -7.7232    2.7941    1.2214 H   0  0  0  0  0  0  0  0  0  0  0  0
   -6.5062    1.6346    1.8093 H   0  0  0  0  0  0  0  0  0  0  0  0
   -6.7230    2.3821   -1.1930 H   0  0  0  0  0  0  0  0  0  0  0  0
   -5.7154    3.3403   -0.0778 H   0  0  0  0  0  0  0  0  0  0  0  0
   -2.1646   -4.8766    0.1416 H   0  0  0  0  0  0  0  0  0  0  0  0
   -3.8531   -4.4630   -0.2590 H   0  0  0  0  0  0  0  0  0  0  0  0
    2.0126   -2.6176    0.7207 H   0  0  0  0  0  0  0  0  0  0  0  0
    0.7133    0.5778   -0.7285 H   0  0  0  0  0  0  0  0  0  0  0  0
    3.3237    0.8863   -1.6285 H   0  0  0  0  0  0  0  0  0  0  0  0
    5.5036   -0.9945    0.4628 H   0  0  0  0  0  0  0  0  0  0  0  0
    6.9640    1.2358    0.8835 H   0  0  0  0  0  0  0  0  0  0  0  0
    7.5557   -0.8748   -1.6588 H   0  0  0  0  0  0  0  0  0  0  0  0
    8.5839    0.2754   -1.7557 H   0  0  0  0  0  0  0  0  0  0  0  0
    8.0527   -1.6460    0.7426 H   0  0  0  0  0  0  0  0  0  0  0  0
    9.1862   -0.6084    1.0693 H   0  0  0  0  0  0  0  0  0  0  0  0
    3.5274    2.3587    0.9679 H   0  0  0  0  0  0  0  0  0  0  0  0
    1.9726    3.6551    0.1265 H   0  0  0  0  0  0  0  0  0  0  0  0
    1.7711    0.7620    2.0328 H   0  0  0  0  0  0  0  0  0  0  0  0
    0.4666    2.2675    2.1649 H   0  0  0  0  0  0  0  0  0  0  0  0
  1  2  1  0
  2  3  1  0
  3  4  1  0
  4  5  1  0
  5  6  3  0
  6  7  1  0
  7  8  2  0
  8  9  1  0
  9 10  1  0
  9 11  2  0
 11 12  1  0
 12 13  2  0
 13 14  1  0
 14 15  1  0
 15 16  1  0
 16 17  1  0
 17 18  1  0
 18 19  2  0
 18 20  1  0
 20 21  1  0
 21 22  1  0
 22 23  1  0
 17 24  1  0
 24 25  1  0
 24 26  1  0
 26 27  1  0
 14 28  1  0
 28 29  2  0
 29  7  1  0
 28 11  1  0
 26 15  1  0
 23 21  1  0
  1 30  1  0
  1 31  1  0
  1 32  1  0
  2 33  1  0
  2 34  1  0
  3 35  1  0
  3 36  1  0
  4 37  1  0
  4 38  1  0
 10 39  1  0
 10 40  1  0
 13 41  1  0
 15 42  1  0
 17 43  1  6
 20 44  1  0
 21 45  1  0
 22 46  1  0
 22 47  1  0
 23 48  1  0
 23 49  1  0
 24 50  1  1
 25 51  1  0
 26 52  1  1
 27 53  1  0
M  END
>  <Original_Name>  (69) 
CHEMBL608029

>  <ROSHAMBO_ComboTanimoto>  (69) 
0.86

>  <ROSHAMBO_ShapeTanimoto>  (69) 
0.659

>  <ROSHAMBO_ColorTanimoto>  (69) 
0.201

>  <ROSHAMBO_FitTverskyCombo>  (69) 
1.079

>  <ROSHAMBO_FitTversky>  (69) 
0.76

>  <ROSHAMBO_FitColorTversky>  (69) 
0.319

>  <ROSHAMBO_RefTverskyCombo>  (69) 
1.185

>  <ROSHAMBO_RefTversky>  (69) 
0.833

>  <ROSHAMBO_RefColorTversky>  (69) 
0.352

>  <ROSHAMBO_Overlap>  (69) 
1030.405

$$$$
CHEMBL483242_0_76
     RDKit          3D

 54 56  0  0  0  0  0  0  0  0999 V2000
    4.9313    3.5836   -0.2842 C   0  0  0  0  0  0  0  0  0  0  0  0
    4.6647    2.8194    0.9966 C   0  0  0  0  0  0  0  0  0  0  0  0
    4.0599    1.5562    0.6407 N   0  0  0  0  0  0  0  0  0  0  0  0
    2.6241    1.4514    0.5394 C   0  0  0  0  0  0  0  0  0  0  0  0
    1.8957    2.0697    1.3628 O   0  0  0  0  0  0  0  0  0  0  0  0
    2.1146    0.5916   -0.5667 C   0  0  0  0  0  0  0  0  0  0  0  0
    2.8115   -0.7011   -0.6676 C   0  0  0  0  0  0  0  0  0  0  0  0
    1.8347   -1.6420   -0.2879 N   0  0  0  0  0  0  0  0  0  0  0  0
    0.5904   -1.1335   -0.2500 C   0  0  0  0  0  0  0  0  0  0  0  0
   -0.4795   -2.0168    0.1159 C   0  0  0  0  0  0  0  0  0  0  0  0
   -1.7296   -2.0737    0.1511 C   0  0  0  0  0  0  0  0  0  0  0  0
   -2.8335   -1.2491   -0.1954 C   0  0  0  0  0  0  0  0  0  0  0  0
   -2.8989   -0.3033   -1.1947 C   0  0  0  0  0  0  0  0  0  0  0  0
   -3.9877    0.5048   -1.4144 C   0  0  0  0  0  0  0  0  0  0  0  0
   -5.1169    0.4040   -0.6141 C   0  0  0  0  0  0  0  0  0  0  0  0
   -6.2053    1.2173   -0.8393 O   0  0  0  0  0  0  0  0  0  0  0  0
   -6.1927    2.1554   -1.8741 C   0  0  0  0  0  0  0  0  0  0  0  0
   -5.1006   -0.5255    0.3937 C   0  0  0  0  0  0  0  0  0  0  0  0
   -6.2354   -0.6182    1.1867 O   0  0  0  0  0  0  0  0  0  0  0  0
   -6.2438   -1.5684    2.2322 C   0  0  0  0  0  0  0  0  0  0  0  0
   -4.0177   -1.3079    0.5905 C   0  0  0  0  0  0  0  0  0  0  0  0
    0.6954    0.2515   -0.3887 N   0  0  0  0  0  0  0  0  0  0  0  0
   -0.3092    1.2761   -0.3103 C   0  0  0  0  0  0  0  0  0  0  0  0
    4.0584   -0.8112    0.0610 N   0  0  0  0  0  0  0  0  0  0  0  0
    4.5871   -2.1070    0.4644 C   0  0  0  0  0  0  0  0  0  0  0  0
    5.4774   -2.7149   -0.5673 C   0  0  0  0  0  0  0  0  0  0  0  0
    4.7915    0.3619    0.3867 C   0  0  0  0  0  0  0  0  0  0  0  0
    6.0477    0.3686    0.4544 O   0  0  0  0  0  0  0  0  0  0  0  0
    5.2846    4.5963   -0.0402 H   0  0  0  0  0  0  0  0  0  0  0  0
    5.6994    3.0588   -0.8712 H   0  0  0  0  0  0  0  0  0  0  0  0
    4.0034    3.6505   -0.8712 H   0  0  0  0  0  0  0  0  0  0  0  0
    5.6100    2.6442    1.5311 H   0  0  0  0  0  0  0  0  0  0  0  0
    3.9953    3.3937    1.6539 H   0  0  0  0  0  0  0  0  0  0  0  0
    2.2851    1.1969   -1.4692 H   0  0  0  0  0  0  0  0  0  0  0  0
    3.1834   -0.8640   -1.6899 H   0  0  0  0  0  0  0  0  0  0  0  0
   -0.0604   -2.9617    0.4920 H   0  0  0  0  0  0  0  0  0  0  0  0
   -2.0694   -3.0332    0.5680 H   0  0  0  0  0  0  0  0  0  0  0  0
   -2.0275   -0.1884   -1.8561 H   0  0  0  0  0  0  0  0  0  0  0  0
   -3.9643    1.2392   -2.2331 H   0  0  0  0  0  0  0  0  0  0  0  0
   -6.1790    3.1699   -1.4491 H   0  0  0  0  0  0  0  0  0  0  0  0
   -5.2965    2.0055   -2.4940 H   0  0  0  0  0  0  0  0  0  0  0  0
   -7.0926    2.0297   -2.4940 H   0  0  0  0  0  0  0  0  0  0  0  0
   -6.2392   -1.0476    3.2011 H   0  0  0  0  0  0  0  0  0  0  0  0
   -7.1474   -2.1908    2.1548 H   0  0  0  0  0  0  0  0  0  0  0  0
   -5.3512   -2.2066    2.1548 H   0  0  0  0  0  0  0  0  0  0  0  0
   -4.0536   -2.0383    1.4121 H   0  0  0  0  0  0  0  0  0  0  0  0
   -0.5259    1.4971    0.7453 H   0  0  0  0  0  0  0  0  0  0  0  0
    0.0559    2.1865   -0.8081 H   0  0  0  0  0  0  0  0  0  0  0  0
   -1.2267    0.9289   -0.8081 H   0  0  0  0  0  0  0  0  0  0  0  0
    5.1623   -1.9782    1.3931 H   0  0  0  0  0  0  0  0  0  0  0  0
    3.7319   -2.7845    0.6046 H   0  0  0  0  0  0  0  0  0  0  0  0
    6.2883   -3.2687   -0.0716 H   0  0  0  0  0  0  0  0  0  0  0  0
    4.8935   -3.4038   -1.1955 H   0  0  0  0  0  0  0  0  0  0  0  0
    5.9065   -1.9204   -1.1955 H   0  0  0  0  0  0  0  0  0  0  0  0
  1  2  1  0
  2  3  1  0
  3  4  1  0
  4  5  2  0
  4  6  1  0
  6  7  1  0
  7  8  1  0
  8  9  2  0
  9 10  1  0
 10 11  2  3
 11 12  1  0
 12 13  2  0
 13 14  1  0
 14 15  2  0
 15 16  1  0
 16 17  1  0
 15 18  1  0
 18 19  1  0
 19 20  1  0
 18 21  2  0
  9 22  1  0
 22 23  1  0
  7 24  1  0
 24 25  1  0
 25 26  1  0
 24 27  1  0
 27 28  2  0
 27  3  1  0
 22  6  1  0
 21 12  1  0
  1 29  1  0
  1 30  1  0
  1 31  1  0
  2 32  1  0
  2 33  1  0
  6 34  1  0
  7 35  1  0
 10 36  1  0
 11 37  1  0
 13 38  1  0
 14 39  1  0
 17 40  1  0
 17 41  1  0
 17 42  1  0
 20 43  1  0
 20 44  1  0
 20 45  1  0
 21 46  1  0
 23 47  1  0
 23 48  1  0
 23 49  1  0
 25 50  1  0
 25 51  1  0
 26 52  1  0
 26 53  1  0
 26 54  1  0
M  END
>  <Original_Name>  (70) 
CHEMBL483242

>  <ROSHAMBO_ComboTanimoto>  (70) 
0.86

>  <ROSHAMBO_ShapeTanimoto>  (70) 
0.646

>  <ROSHAMBO_ColorTanimoto>  (70) 
0.214

>  <ROSHAMBO_FitTverskyCombo>  (70) 
1.221

>  <ROSHAMBO_FitTversky>  (70) 
0.764

>  <ROSHAMBO_FitColorTversky>  (70) 
0.457

>  <ROSHAMBO_RefTverskyCombo>  (70) 
1.094

>  <ROSHAMBO_RefTversky>  (70) 
0.806

>  <ROSHAMBO_RefColorTversky>  (70) 
0.288

>  <ROSHAMBO_Overlap>  (70) 
994.674

$$$$
CHEMBL17859_0_77
     RDKit          3D

 32 34  0  0  0  0  0  0  0  0999 V2000
    4.3485    1.8493   -0.0473 N   0  0  0  0  0  0  0  0  0  0  0  0
    3.5363    0.6899    0.0241 C   0  0  0  0  0  0  0  0  0  0  0  0
    2.1867    0.8779    0.2878 C   0  0  0  0  0  0  0  0  0  0  0  0
    1.4349    1.9771    0.5030 N   0  0  0  0  0  0  0  0  0  0  0  0
    0.1661    1.5826    0.7117 C   0  0  0  0  0  0  0  0  0  0  0  0
    0.0689    0.2526    0.6385 N   0  0  0  0  0  0  0  0  0  0  0  0
   -1.0787   -0.5972    0.7934 C   0  0  0  0  0  0  0  0  0  0  0  0
   -2.5974    0.4447    0.7827 S   0  0  0  0  0  0  0  0  0  0  0  0
   -3.5862   -0.5886   -0.3724 C   0  0  0  0  0  0  0  0  0  0  0  0
   -4.9914   -0.7649    0.1377 C   0  0  0  0  0  0  0  0  0  0  0  0
   -5.5785    0.4917    0.2506 O   0  0  0  0  0  0  0  0  0  0  0  0
   -2.7899   -1.8870   -0.2592 C   0  0  0  0  0  0  0  0  0  0  0  0
   -3.1754   -2.8268   -1.1790 O   0  0  0  0  0  0  0  0  0  0  0  0
   -1.3535   -1.4215   -0.4718 C   0  0  0  0  0  0  0  0  0  0  0  0
   -0.4820   -2.4742   -0.6061 O   0  0  0  0  0  0  0  0  0  0  0  0
    1.3274   -0.1971    0.3738 C   0  0  0  0  0  0  0  0  0  0  0  0
    1.8476   -1.4253    0.1929 N   0  0  0  0  0  0  0  0  0  0  0  0
    3.1519   -1.6228   -0.0630 C   0  0  0  0  0  0  0  0  0  0  0  0
    3.8013   -3.2533   -0.2956 Cl  0  0  0  0  0  0  0  0  0  0  0  0
    3.9658   -0.5554   -0.1411 N   0  0  0  0  0  0  0  0  0  0  0  0
    5.3564    1.7610   -0.2406 H   0  0  0  0  0  0  0  0  0  0  0  0
    3.9309    2.7802    0.0942 H   0  0  0  0  0  0  0  0  0  0  0  0
   -0.6752    2.2616    0.9146 H   0  0  0  0  0  0  0  0  0  0  0  0
   -0.8818   -1.1942    1.6960 H   0  0  0  0  0  0  0  0  0  0  0  0
   -3.7091   -0.1922   -1.3912 H   0  0  0  0  0  0  0  0  0  0  0  0
   -5.5678   -1.3823   -0.5670 H   0  0  0  0  0  0  0  0  0  0  0  0
   -4.9779   -1.2652    1.1173 H   0  0  0  0  0  0  0  0  0  0  0  0
   -5.6857    0.7211    1.2077 H   0  0  0  0  0  0  0  0  0  0  0  0
   -2.9414   -2.3978    0.7032 H   0  0  0  0  0  0  0  0  0  0  0  0
   -3.5060   -3.6328   -0.7086 H   0  0  0  0  0  0  0  0  0  0  0  0
   -1.2160   -0.8481   -1.4004 H   0  0  0  0  0  0  0  0  0  0  0  0
   -0.2143   -2.7974    0.2905 H   0  0  0  0  0  0  0  0  0  0  0  0
  1  2  1  0
  2  3  2  0
  3  4  1  0
  4  5  2  0
  5  6  1  0
  6  7  1  0
  7  8  1  0
  8  9  1  0
  9 10  1  0
 10 11  1  0
  9 12  1  0
 12 13  1  0
 12 14  1  0
 14 15  1  0
  6 16  1  0
 16 17  2  0
 17 18  1  0
 18 19  1  0
 18 20  2  0
 20  2  1  0
 16  3  1  0
 14  7  1  0
  1 21  1  0
  1 22  1  0
  5 23  1  0
  7 24  1  0
  9 25  1  0
 10 26  1  0
 10 27  1  0
 11 28  1  0
 12 29  1  0
 13 30  1  0
 14 31  1  0
 15 32  1  0
M  END
>  <Original_Name>  (71) 
CHEMBL17859

>  <ROSHAMBO_ComboTanimoto>  (71) 
0.86

>  <ROSHAMBO_ShapeTanimoto>  (71) 
0.601

>  <ROSHAMBO_ColorTanimoto>  (71) 
0.259

>  <ROSHAMBO_FitTverskyCombo>  (71) 
1.271

>  <ROSHAMBO_FitTversky>  (71) 
0.86

>  <ROSHAMBO_FitColorTversky>  (71) 
0.411

>  <ROSHAMBO_RefTverskyCombo>  (71) 
1.078

>  <ROSHAMBO_RefTversky>  (71) 
0.666

>  <ROSHAMBO_RefColorTversky>  (71) 
0.412

>  <ROSHAMBO_Overlap>  (71) 
809.649

$$$$
CHEMBL468506_0
     RDKit          3D

 47 50  0  0  0  0  0  0  0  0999 V2000
    5.7251   -1.5163   -1.4686 C   0  0  0  0  0  0  0  0  0  0  0  0
    5.2147   -0.4021   -0.6845 N   0  0  0  0  0  0  0  0  0  0  0  0
    3.9209   -0.4289   -0.3371 C   0  0  0  0  0  0  0  0  0  0  0  0
    3.4309    0.6242    0.4061 C   0  0  0  0  0  0  0  0  0  0  0  0
    2.1211    0.3768    0.6311 N   0  0  0  0  0  0  0  0  0  0  0  0
    1.7464   -0.7680    0.0776 C   0  0  0  0  0  0  0  0  0  0  0  0
    0.3972   -1.3653    0.1123 C   0  0  0  0  0  0  0  0  0  0  0  0
   -0.6463   -0.7580    0.7542 C   0  0  0  0  0  0  0  0  0  0  0  0
   -1.9109   -1.3360    0.7764 C   0  0  0  0  0  0  0  0  0  0  0  0
   -2.1679   -2.5381    0.1567 C   0  0  0  0  0  0  0  0  0  0  0  0
   -3.5208   -3.1339    0.1885 C   0  0  0  0  0  0  0  0  0  0  0  0
   -4.5044   -2.2553    0.6481 O   0  0  0  0  0  0  0  0  0  0  0  0
   -4.8509   -1.0625    0.0828 C   0  0  0  0  0  0  0  0  0  0  0  0
   -4.2262   -0.7052   -0.9662 O   0  0  0  0  0  0  0  0  0  0  0  0
   -5.8648   -0.1959    0.5926 N   0  0  0  0  0  0  0  0  0  0  0  0
   -6.1921    1.0340   -0.0266 C   0  0  0  0  0  0  0  0  0  0  0  0
   -7.1557    1.9116    0.4133 C   0  0  0  0  0  0  0  0  0  0  0  0
   -7.1813    3.0018   -0.4549 C   0  0  0  0  0  0  0  0  0  0  0  0
   -6.1976    2.7010   -1.3946 C   0  0  0  0  0  0  0  0  0  0  0  0
   -5.6568    1.5416   -1.0915 O   0  0  0  0  0  0  0  0  0  0  0  0
   -1.1114   -3.1419   -0.4868 C   0  0  0  0  0  0  0  0  0  0  0  0
    0.1555   -2.5702   -0.5131 C   0  0  0  0  0  0  0  0  0  0  0  0
    2.8542   -1.2994   -0.5387 C   0  0  0  0  0  0  0  0  0  0  0  0
    4.2964    1.6492    0.7530 C   0  0  0  0  0  0  0  0  0  0  0  0
    3.8811    2.6213    1.4287 O   0  0  0  0  0  0  0  0  0  0  0  0
    5.5981    1.6480    0.3873 N   0  0  0  0  0  0  0  0  0  0  0  0
    6.4808    2.7381    0.7669 C   0  0  0  0  0  0  0  0  0  0  0  0
    6.0396    0.6127   -0.3320 C   0  0  0  0  0  0  0  0  0  0  0  0
    7.2646    0.6092   -0.6775 O   0  0  0  0  0  0  0  0  0  0  0  0
    6.0865   -2.3052   -0.7926 H   0  0  0  0  0  0  0  0  0  0  0  0
    4.9208   -1.9171   -2.1030 H   0  0  0  0  0  0  0  0  0  0  0  0
    6.5539   -1.1690   -2.1030 H   0  0  0  0  0  0  0  0  0  0  0  0
    1.4951    0.9976    1.1637 H   0  0  0  0  0  0  0  0  0  0  0  0
   -0.4826    0.2040    1.2618 H   0  0  0  0  0  0  0  0  0  0  0  0
   -2.7270   -0.8192    1.3026 H   0  0  0  0  0  0  0  0  0  0  0  0
   -3.7858   -3.4512   -0.8309 H   0  0  0  0  0  0  0  0  0  0  0  0
   -3.4865   -3.9788    0.8920 H   0  0  0  0  0  0  0  0  0  0  0  0
   -6.3765   -0.4760    1.4415 H   0  0  0  0  0  0  0  0  0  0  0  0
   -7.7957    1.7764    1.2977 H   0  0  0  0  0  0  0  0  0  0  0  0
   -7.8268    3.8912   -0.4089 H   0  0  0  0  0  0  0  0  0  0  0  0
   -5.9186    3.3317   -2.2516 H   0  0  0  0  0  0  0  0  0  0  0  0
   -1.2742   -4.1040   -0.9946 H   0  0  0  0  0  0  0  0  0  0  0  0
    0.9738   -3.0845   -1.0383 H   0  0  0  0  0  0  0  0  0  0  0  0
    2.8910   -2.2478   -1.0947 H   0  0  0  0  0  0  0  0  0  0  0  0
    6.5330    2.8027    1.8638 H   0  0  0  0  0  0  0  0  0  0  0  0
    7.4868    2.5534    0.3622 H   0  0  0  0  0  0  0  0  0  0  0  0
    6.0907    3.6837    0.3622 H   0  0  0  0  0  0  0  0  0  0  0  0
  1  2  1  0
  2  3  1  0
  3  4  2  0
  4  5  1  0
  5  6  1  0
  6  7  1  0
  7  8  2  0
  8  9  1  0
  9 10  2  0
 10 11  1  0
 11 12  1  0
 12 13  1  0
 13 14  2  0
 13 15  1  0
 15 16  1  0
 16 17  2  0
 17 18  1  0
 18 19  2  0
 19 20  1  0
 10 21  1  0
 21 22  2  0
  6 23  2  0
  4 24  1  0
 24 25  2  0
 24 26  1  0
 26 27  1  0
 26 28  1  0
 28 29  2  0
 28  2  1  0
 23  3  1  0
 22  7  1  0
 20 16  1  0
  1 30  1  0
  1 31  1  0
  1 32  1  0
  5 33  1  0
  8 34  1  0
  9 35  1  0
 11 36  1  0
 11 37  1  0
 15 38  1  0
 17 39  1  0
 18 40  1  0
 19 41  1  0
 21 42  1  0
 22 43  1  0
 23 44  1  0
 27 45  1  0
 27 46  1  0
 27 47  1  0
M  END
>  <Original_Name>  (72) 
CHEMBL468506

>  <ROSHAMBO_ComboTanimoto>  (72) 
0.857

>  <ROSHAMBO_ShapeTanimoto>  (72) 
0.699

>  <ROSHAMBO_ColorTanimoto>  (72) 
0.158

>  <ROSHAMBO_FitTverskyCombo>  (72) 
1.087

>  <ROSHAMBO_FitTversky>  (72) 
0.773

>  <ROSHAMBO_FitColorTversky>  (72) 
0.314

>  <ROSHAMBO_RefTverskyCombo>  (72) 
1.12

>  <ROSHAMBO_RefTversky>  (72) 
0.88

>  <ROSHAMBO_RefColorTversky>  (72) 
0.24

>  <ROSHAMBO_Overlap>  (72) 
1091.185

$$$$
CHEMBL483242_0_34
     RDKit          3D

 54 56  0  0  0  0  0  0  0  0999 V2000
    7.1424    0.8886    0.2806 C   0  0  0  0  0  0  0  0  0  0  0  0
    6.0214    1.2816   -0.6314 C   0  0  0  0  0  0  0  0  0  0  0  0
    4.7823    0.6043   -0.3495 N   0  0  0  0  0  0  0  0  0  0  0  0
    3.8021    1.0904    0.5442 C   0  0  0  0  0  0  0  0  0  0  0  0
    3.9665    2.2341    1.0211 O   0  0  0  0  0  0  0  0  0  0  0  0
    2.6201    0.3284    0.9321 C   0  0  0  0  0  0  0  0  0  0  0  0
    2.7236   -1.1678    0.5966 C   0  0  0  0  0  0  0  0  0  0  0  0
    1.3202   -1.5283    0.6196 N   0  0  0  0  0  0  0  0  0  0  0  0
    0.5794   -0.4728    0.3405 C   0  0  0  0  0  0  0  0  0  0  0  0
   -0.8756   -0.4726    0.2777 C   0  0  0  0  0  0  0  0  0  0  0  0
   -1.6311    0.5572    0.0171 C   0  0  0  0  0  0  0  0  0  0  0  0
   -3.0828    0.4573   -0.0244 C   0  0  0  0  0  0  0  0  0  0  0  0
   -3.8422    1.6002   -0.3103 C   0  0  0  0  0  0  0  0  0  0  0  0
   -5.2092    1.5459   -0.3581 C   0  0  0  0  0  0  0  0  0  0  0  0
   -5.9082    0.3741   -0.1297 C   0  0  0  0  0  0  0  0  0  0  0  0
   -7.2961    0.3573   -0.1867 O   0  0  0  0  0  0  0  0  0  0  0  0
   -7.9915    1.5510   -0.4810 C   0  0  0  0  0  0  0  0  0  0  0  0
   -5.1755   -0.7508    0.1511 C   0  0  0  0  0  0  0  0  0  0  0  0
   -5.8474   -1.9462    0.3860 O   0  0  0  0  0  0  0  0  0  0  0  0
   -5.1197   -3.1240    0.6782 C   0  0  0  0  0  0  0  0  0  0  0  0
   -3.7773   -0.7030    0.2017 C   0  0  0  0  0  0  0  0  0  0  0  0
    1.4356    0.6296    0.1046 N   0  0  0  0  0  0  0  0  0  0  0  0
    1.2675    1.7687   -0.7248 C   0  0  0  0  0  0  0  0  0  0  0  0
    3.2874   -1.3066   -0.7271 N   0  0  0  0  0  0  0  0  0  0  0  0
    2.6511   -2.1071   -1.7640 C   0  0  0  0  0  0  0  0  0  0  0  0
    3.1032   -3.5297   -1.7583 C   0  0  0  0  0  0  0  0  0  0  0  0
    4.5073   -0.6301   -0.9985 C   0  0  0  0  0  0  0  0  0  0  0  0
    5.3346   -1.1307   -1.8126 O   0  0  0  0  0  0  0  0  0  0  0  0
    6.8209    1.0013    1.3265 H   0  0  0  0  0  0  0  0  0  0  0  0
    7.4177   -0.1597    0.0926 H   0  0  0  0  0  0  0  0  0  0  0  0
    8.0120    1.5354    0.0926 H   0  0  0  0  0  0  0  0  0  0  0  0
    5.8559    2.3645   -0.5318 H   0  0  0  0  0  0  0  0  0  0  0  0
    6.3202    0.9951   -1.6505 H   0  0  0  0  0  0  0  0  0  0  0  0
    2.5434    0.5809    2.0000 H   0  0  0  0  0  0  0  0  0  0  0  0
    3.3522   -1.7799    1.2601 H   0  0  0  0  0  0  0  0  0  0  0  0
   -1.3837   -1.4295    0.4678 H   0  0  0  0  0  0  0  0  0  0  0  0
   -1.1575    1.5308   -0.1774 H   0  0  0  0  0  0  0  0  0  0  0  0
   -3.3316    2.5560   -0.4993 H   0  0  0  0  0  0  0  0  0  0  0  0
   -5.7703    2.4642   -0.5857 H   0  0  0  0  0  0  0  0  0  0  0  0
   -8.2808    2.0476    0.4569 H   0  0  0  0  0  0  0  0  0  0  0  0
   -7.3416    2.2196   -1.0646 H   0  0  0  0  0  0  0  0  0  0  0  0
   -8.8937    1.3154   -1.0646 H   0  0  0  0  0  0  0  0  0  0  0  0
   -5.0437   -3.2470    1.7686 H   0  0  0  0  0  0  0  0  0  0  0  0
   -5.6390   -3.9924    0.2465 H   0  0  0  0  0  0  0  0  0  0  0  0
   -4.1108   -3.0482    0.2465 H   0  0  0  0  0  0  0  0  0  0  0  0
   -3.2195   -1.6233    0.4296 H   0  0  0  0  0  0  0  0  0  0  0  0
    1.1356    2.6627   -0.0976 H   0  0  0  0  0  0  0  0  0  0  0  0
    2.1569    1.8943   -1.3598 H   0  0  0  0  0  0  0  0  0  0  0  0
    0.3798    1.6321   -1.3598 H   0  0  0  0  0  0  0  0  0  0  0  0
    1.5627   -2.0840   -1.6070 H   0  0  0  0  0  0  0  0  0  0  0  0
    2.9336   -1.6746   -2.7351 H   0  0  0  0  0  0  0  0  0  0  0  0
    3.2130   -3.8754   -0.7198 H   0  0  0  0  0  0  0  0  0  0  0  0
    2.3589   -4.1530   -2.2755 H   0  0  0  0  0  0  0  0  0  0  0  0
    4.0708   -3.6090   -2.2755 H   0  0  0  0  0  0  0  0  0  0  0  0
  1  2  1  0
  2  3  1  0
  3  4  1  0
  4  5  2  0
  4  6  1  0
  6  7  1  0
  7  8  1  0
  8  9  2  0
  9 10  1  0
 10 11  2  3
 11 12  1  0
 12 13  2  0
 13 14  1  0
 14 15  2  0
 15 16  1  0
 16 17  1  0
 15 18  1  0
 18 19  1  0
 19 20  1  0
 18 21  2  0
  9 22  1  0
 22 23  1  0
  7 24  1  0
 24 25  1  0
 25 26  1  0
 24 27  1  0
 27 28  2  0
 27  3  1  0
 22  6  1  0
 21 12  1  0
  1 29  1  0
  1 30  1  0
  1 31  1  0
  2 32  1  0
  2 33  1  0
  6 34  1  0
  7 35  1  0
 10 36  1  0
 11 37  1  0
 13 38  1  0
 14 39  1  0
 17 40  1  0
 17 41  1  0
 17 42  1  0
 20 43  1  0
 20 44  1  0
 20 45  1  0
 21 46  1  0
 23 47  1  0
 23 48  1  0
 23 49  1  0
 25 50  1  0
 25 51  1  0
 26 52  1  0
 26 53  1  0
 26 54  1  0
M  END
>  <Original_Name>  (73) 
CHEMBL483242

>  <ROSHAMBO_ComboTanimoto>  (73) 
0.853

>  <ROSHAMBO_ShapeTanimoto>  (73) 
0.618

>  <ROSHAMBO_ColorTanimoto>  (73) 
0.236

>  <ROSHAMBO_FitTverskyCombo>  (73) 
1.234

>  <ROSHAMBO_FitTversky>  (73) 
0.744

>  <ROSHAMBO_FitColorTversky>  (73) 
0.49

>  <ROSHAMBO_RefTverskyCombo>  (73) 
1.097

>  <ROSHAMBO_RefTversky>  (73) 
0.785

>  <ROSHAMBO_RefColorTversky>  (73) 
0.312

>  <ROSHAMBO_Overlap>  (73) 
968.371

$$$$
CHEMBL1222145_0_75
     RDKit          3D

 38 40  0  0  0  0  0  0  0  0999 V2000
   -3.2351   -5.4935   -0.6850 C   0  0  0  0  0  0  0  0  0  0  0  0
   -3.5653   -4.5594    0.4478 C   0  0  0  0  0  0  0  0  0  0  0  0
   -2.9136   -3.3034    0.2992 O   0  0  0  0  0  0  0  0  0  0  0  0
   -1.5626   -3.2369    0.2513 C   0  0  0  0  0  0  0  0  0  0  0  0
   -0.9147   -4.3156    0.3422 O   0  0  0  0  0  0  0  0  0  0  0  0
   -0.7703   -2.0080    0.1044 C   0  0  0  0  0  0  0  0  0  0  0  0
   -1.1044   -0.7085   -0.0466 C   0  0  0  0  0  0  0  0  0  0  0  0
   -2.5556   -0.3270   -0.1319 C   0  0  0  0  0  0  0  0  0  0  0  0
   -3.3867   -0.9243   -1.0431 C   0  0  0  0  0  0  0  0  0  0  0  0
   -4.7375   -0.6054   -1.1197 C   0  0  0  0  0  0  0  0  0  0  0  0
   -5.2676    0.3347   -0.2639 C   0  0  0  0  0  0  0  0  0  0  0  0
   -4.4491    0.9458    0.6568 C   0  0  0  0  0  0  0  0  0  0  0  0
   -3.0946    0.6108    0.7178 C   0  0  0  0  0  0  0  0  0  0  0  0
   -0.1689    0.1904   -0.1052 N   0  0  0  0  0  0  0  0  0  0  0  0
    1.1095   -0.1458   -0.0212 C   0  0  0  0  0  0  0  0  0  0  0  0
    2.3173    0.6240   -0.0561 N   0  0  0  0  0  0  0  0  0  0  0  0
    3.5887    0.0220    0.0556 C   0  0  0  0  0  0  0  0  0  0  0  0
    3.5875   -1.2481    0.1891 O   0  0  0  0  0  0  0  0  0  0  0  0
    4.8324    0.7600    0.0254 C   0  0  0  0  0  0  0  0  0  0  0  0
    4.9617    2.1212   -0.1129 C   0  0  0  0  0  0  0  0  0  0  0  0
    6.3309    2.4201   -0.0922 C   0  0  0  0  0  0  0  0  0  0  0  0
    6.9414    1.1749    0.0622 C   0  0  0  0  0  0  0  0  0  0  0  0
    6.0228    0.2316    0.1264 O   0  0  0  0  0  0  0  0  0  0  0  0
    0.9890   -1.9222    0.1610 S   0  0  0  0  0  0  0  0  0  0  0  0
   -2.8944   -6.4571   -0.2782 H   0  0  0  0  0  0  0  0  0  0  0  0
   -4.1315   -5.6525   -1.3023 H   0  0  0  0  0  0  0  0  0  0  0  0
   -2.4379   -5.0538   -1.3023 H   0  0  0  0  0  0  0  0  0  0  0  0
   -4.6530   -4.3966    0.4704 H   0  0  0  0  0  0  0  0  0  0  0  0
   -3.2168   -5.0187    1.3846 H   0  0  0  0  0  0  0  0  0  0  0  0
   -2.9741   -1.6760   -1.7321 H   0  0  0  0  0  0  0  0  0  0  0  0
   -5.3807   -1.1020   -1.8610 H   0  0  0  0  0  0  0  0  0  0  0  0
   -6.3353    0.5941   -0.3165 H   0  0  0  0  0  0  0  0  0  0  0  0
   -4.8611    1.6984    1.3452 H   0  0  0  0  0  0  0  0  0  0  0  0
   -2.4480    1.1052    1.4577 H   0  0  0  0  0  0  0  0  0  0  0  0
    2.2559    1.6463   -0.1660 H   0  0  0  0  0  0  0  0  0  0  0  0
    4.1400    2.8446   -0.2204 H   0  0  0  0  0  0  0  0  0  0  0  0
    6.8117    3.4058   -0.1776 H   0  0  0  0  0  0  0  0  0  0  0  0
    8.0267    1.0058    0.1214 H   0  0  0  0  0  0  0  0  0  0  0  0
  1  2  1  0
  2  3  1  0
  3  4  1  0
  4  5  2  0
  4  6  1  0
  6  7  2  0
  7  8  1  0
  8  9  2  0
  9 10  1  0
 10 11  2  0
 11 12  1  0
 12 13  2  0
  7 14  1  0
 14 15  2  0
 15 16  1  0
 16 17  1  0
 17 18  2  0
 17 19  1  0
 19 20  2  0
 20 21  1  0
 21 22  2  0
 22 23  1  0
 15 24  1  0
 24  6  1  0
 13  8  1  0
 23 19  1  0
  1 25  1  0
  1 26  1  0
  1 27  1  0
  2 28  1  0
  2 29  1  0
  9 30  1  0
 10 31  1  0
 11 32  1  0
 12 33  1  0
 13 34  1  0
 16 35  1  0
 20 36  1  0
 21 37  1  0
 22 38  1  0
M  END
>  <Original_Name>  (74) 
CHEMBL1222145

>  <ROSHAMBO_ComboTanimoto>  (74) 
0.847

>  <ROSHAMBO_ShapeTanimoto>  (74) 
0.597

>  <ROSHAMBO_ColorTanimoto>  (74) 
0.251

>  <ROSHAMBO_FitTverskyCombo>  (74) 
1.32

>  <ROSHAMBO_FitTversky>  (74) 
0.782

>  <ROSHAMBO_FitColorTversky>  (74) 
0.539

>  <ROSHAMBO_RefTverskyCombo>  (74) 
1.035

>  <ROSHAMBO_RefTversky>  (74) 
0.716

>  <ROSHAMBO_RefColorTversky>  (74) 
0.319

>  <ROSHAMBO_Overlap>  (74) 
876.957

$$$$
CHEMBL17859_0_80
     RDKit          3D

 32 34  0  0  0  0  0  0  0  0999 V2000
    5.2844    0.7230   -0.1810 N   0  0  0  0  0  0  0  0  0  0  0  0
    4.0799   -0.0173   -0.0872 C   0  0  0  0  0  0  0  0  0  0  0  0
    2.8571    0.5868    0.1056 C   0  0  0  0  0  0  0  0  0  0  0  0
    2.4963    1.8852    0.2432 N   0  0  0  0  0  0  0  0  0  0  0  0
    1.1524    1.9323    0.4107 C   0  0  0  0  0  0  0  0  0  0  0  0
    0.6390    0.7029    0.3848 N   0  0  0  0  0  0  0  0  0  0  0  0
   -0.7353    0.3803    0.5293 C   0  0  0  0  0  0  0  0  0  0  0  0
   -1.7279    0.9029   -0.9283 S   0  0  0  0  0  0  0  0  0  0  0  0
   -2.9367   -0.4861   -0.8661 C   0  0  0  0  0  0  0  0  0  0  0  0
   -4.3449    0.0588   -0.8199 C   0  0  0  0  0  0  0  0  0  0  0  0
   -5.2071   -1.0319   -0.7744 O   0  0  0  0  0  0  0  0  0  0  0  0
   -2.5548   -1.0891    0.4853 C   0  0  0  0  0  0  0  0  0  0  0  0
   -3.0142   -2.3890    0.6164 O   0  0  0  0  0  0  0  0  0  0  0  0
   -1.0249   -1.1042    0.4418 C   0  0  0  0  0  0  0  0  0  0  0  0
   -0.7212   -1.5949   -0.8479 O   0  0  0  0  0  0  0  0  0  0  0  0
    1.6704   -0.1346    0.1985 C   0  0  0  0  0  0  0  0  0  0  0  0
    1.7836   -1.4727    0.0883 N   0  0  0  0  0  0  0  0  0  0  0  0
    2.9622   -2.0924   -0.1003 C   0  0  0  0  0  0  0  0  0  0  0  0
    3.1204   -3.8282   -0.2447 Cl  0  0  0  0  0  0  0  0  0  0  0  0
    4.0988   -1.3567   -0.1861 N   0  0  0  0  0  0  0  0  0  0  0  0
    6.1794    0.2342   -0.3255 H   0  0  0  0  0  0  0  0  0  0  0  0
    5.2650    1.7500   -0.1047 H   0  0  0  0  0  0  0  0  0  0  0  0
    0.5684    2.8542    0.5484 H   0  0  0  0  0  0  0  0  0  0  0  0
   -0.9758    0.8541    1.4925 H   0  0  0  0  0  0  0  0  0  0  0  0
   -2.9113   -1.1819   -1.7177 H   0  0  0  0  0  0  0  0  0  0  0  0
   -4.4785    0.6823    0.0763 H   0  0  0  0  0  0  0  0  0  0  0  0
   -4.5511    0.6827   -1.7021 H   0  0  0  0  0  0  0  0  0  0  0  0
   -5.3927   -1.2666    0.1693 H   0  0  0  0  0  0  0  0  0  0  0  0
   -2.9835   -0.5212    1.3241 H   0  0  0  0  0  0  0  0  0  0  0  0
   -3.0943   -2.6154    1.5768 H   0  0  0  0  0  0  0  0  0  0  0  0
   -0.4824   -1.6914    1.1973 H   0  0  0  0  0  0  0  0  0  0  0  0
   -0.2019   -2.4339   -0.7679 H   0  0  0  0  0  0  0  0  0  0  0  0
  1  2  1  0
  2  3  2  0
  3  4  1  0
  4  5  2  0
  5  6  1  0
  6  7  1  0
  7  8  1  0
  8  9  1  0
  9 10  1  0
 10 11  1  0
  9 12  1  0
 12 13  1  0
 12 14  1  0
 14 15  1  0
  6 16  1  0
 16 17  2  0
 17 18  1  0
 18 19  1  0
 18 20  2  0
 20  2  1  0
 16  3  1  0
 14  7  1  0
  1 21  1  0
  1 22  1  0
  5 23  1  0
  7 24  1  0
  9 25  1  0
 10 26  1  0
 10 27  1  0
 11 28  1  0
 12 29  1  0
 13 30  1  0
 14 31  1  0
 15 32  1  0
M  END
>  <Original_Name>  (75) 
CHEMBL17859

>  <ROSHAMBO_ComboTanimoto>  (75) 
0.844

>  <ROSHAMBO_ShapeTanimoto>  (75) 
0.593

>  <ROSHAMBO_ColorTanimoto>  (75) 
0.252

>  <ROSHAMBO_FitTverskyCombo>  (75) 
1.251

>  <ROSHAMBO_FitTversky>  (75) 
0.849

>  <ROSHAMBO_FitColorTversky>  (75) 
0.401

>  <ROSHAMBO_RefTverskyCombo>  (75) 
1.065

>  <ROSHAMBO_RefTversky>  (75) 
0.663

>  <ROSHAMBO_RefColorTversky>  (75) 
0.403

>  <ROSHAMBO_Overlap>  (75) 
805.513

$$$$
CHEMBL303198_0_11
     RDKit          3D

 31 34  0  0  0  0  0  0  0  0999 V2000
   -1.1065   -2.4677    0.7317 N   0  0  0  0  0  0  0  0  0  0  0  0
   -0.2836   -1.3222    0.4907 C   0  0  0  0  0  0  0  0  0  0  0  0
   -0.7817   -0.1017    0.4016 N   0  0  0  0  0  0  0  0  0  0  0  0
    0.0016    0.9439    0.1777 C   0  0  0  0  0  0  0  0  0  0  0  0
   -0.5009    2.2216    0.0821 C   0  0  0  0  0  0  0  0  0  0  0  0
    0.3108    3.2885   -0.1479 C   0  0  0  0  0  0  0  0  0  0  0  0
    1.6691    3.0968   -0.2899 C   0  0  0  0  0  0  0  0  0  0  0  0
    2.7140    4.4707   -0.5859 Cl  0  0  0  0  0  0  0  0  0  0  0  0
    2.2083    1.8110   -0.1977 C   0  0  0  0  0  0  0  0  0  0  0  0
    1.3711    0.7606    0.0333 C   0  0  0  0  0  0  0  0  0  0  0  0
    1.9166   -0.4943    0.1209 N   0  0  0  0  0  0  0  0  0  0  0  0
    3.1598   -0.9496    0.0253 C   0  0  0  0  0  0  0  0  0  0  0  0
    4.4239   -0.2742   -0.2117 C   0  0  0  0  0  0  0  0  0  0  0  0
    5.1889    0.1811    0.8578 C   0  0  0  0  0  0  0  0  0  0  0  0
    6.4079    0.7952    0.7371 C   0  0  0  0  0  0  0  0  0  0  0  0
    6.9010    0.9690   -0.5369 C   0  0  0  0  0  0  0  0  0  0  0  0
    6.1629    0.5270   -1.6152 C   0  0  0  0  0  0  0  0  0  0  0  0
    4.9515   -0.0815   -1.4644 C   0  0  0  0  0  0  0  0  0  0  0  0
    3.0711   -2.3095    0.2031 N   0  0  0  0  0  0  0  0  0  0  0  0
    1.8276   -2.6438    0.3957 N   0  0  0  0  0  0  0  0  0  0  0  0
    1.0672   -1.5367    0.3525 C   0  0  0  0  0  0  0  0  0  0  0  0
   -0.6808   -3.4035    0.7948 H   0  0  0  0  0  0  0  0  0  0  0  0
   -2.1245   -2.3564    0.8421 H   0  0  0  0  0  0  0  0  0  0  0  0
   -1.5832    2.3835    0.1941 H   0  0  0  0  0  0  0  0  0  0  0  0
   -0.1146    4.3004   -0.2203 H   0  0  0  0  0  0  0  0  0  0  0  0
    3.2906    1.6492   -0.3097 H   0  0  0  0  0  0  0  0  0  0  0  0
    4.7868    0.0378    1.8715 H   0  0  0  0  0  0  0  0  0  0  0  0
    6.9687    1.1350    1.6203 H   0  0  0  0  0  0  0  0  0  0  0  0
    7.8748    1.4560   -0.6934 H   0  0  0  0  0  0  0  0  0  0  0  0
    6.5642    0.6698   -2.6293 H   0  0  0  0  0  0  0  0  0  0  0  0
    4.3946   -0.4194   -2.3508 H   0  0  0  0  0  0  0  0  0  0  0  0
  1  2  1  0
  2  3  2  0
  3  4  1  0
  4  5  2  0
  5  6  1  0
  6  7  2  0
  7  8  1  0
  7  9  1  0
  9 10  2  0
 10 11  1  0
 11 12  1  0
 12 13  1  0
 13 14  2  0
 14 15  1  0
 15 16  2  0
 16 17  1  0
 17 18  2  0
 12 19  2  0
 19 20  1  0
 20 21  2  0
 21  2  1  0
 10  4  1  0
 21 11  1  0
 18 13  1  0
  1 22  1  0
  1 23  1  0
  5 24  1  0
  6 25  1  0
  9 26  1  0
 14 27  1  0
 15 28  1  0
 16 29  1  0
 17 30  1  0
 18 31  1  0
M  END
>  <Original_Name>  (76) 
CHEMBL303198

>  <ROSHAMBO_ComboTanimoto>  (76) 
0.844

>  <ROSHAMBO_ShapeTanimoto>  (76) 
0.512

>  <ROSHAMBO_ColorTanimoto>  (76) 
0.331

>  <ROSHAMBO_FitTverskyCombo>  (76) 
1.298

>  <ROSHAMBO_FitTversky>  (76) 
0.734

>  <ROSHAMBO_FitColorTversky>  (76) 
0.564

>  <ROSHAMBO_RefTverskyCombo>  (76) 
1.075

>  <ROSHAMBO_RefTversky>  (76) 
0.629

>  <ROSHAMBO_RefColorTversky>  (76) 
0.446

>  <ROSHAMBO_Overlap>  (76) 
768.149

$$$$
CHEMBL95101_0_54
     RDKit          3D

 42 45  0  0  0  0  0  0  0  0999 V2000
   -0.6037   -2.9976   -0.1466 C   0  0  0  0  0  0  0  0  0  0  0  0
   -0.0563   -1.6191   -0.1702 C   0  0  0  0  0  0  0  0  0  0  0  0
   -0.7272   -0.4185   -0.2837 C   0  0  0  0  0  0  0  0  0  0  0  0
   -2.1946   -0.2668   -0.4101 C   0  0  0  0  0  0  0  0  0  0  0  0
    0.1781    0.5746   -0.2593 N   0  0  0  0  0  0  0  0  0  0  0  0
   -0.0720    1.9699   -0.3484 C   0  0  0  0  0  0  0  0  0  0  0  0
   -0.0737    2.6928    0.8145 C   0  0  0  0  0  0  0  0  0  0  0  0
   -0.3099    4.0421    0.7819 C   0  0  0  0  0  0  0  0  0  0  0  0
   -0.5482    4.6943   -0.4067 C   0  0  0  0  0  0  0  0  0  0  0  0
   -0.5490    3.9721   -1.5907 C   0  0  0  0  0  0  0  0  0  0  0  0
   -0.3100    2.6284   -1.5235 C   0  0  0  0  0  0  0  0  0  0  0  0
    1.4085    0.0568   -0.1341 C   0  0  0  0  0  0  0  0  0  0  0  0
    2.6592    0.6022   -0.0596 N   0  0  0  0  0  0  0  0  0  0  0  0
    3.7711   -0.1394    0.0671 C   0  0  0  0  0  0  0  0  0  0  0  0
    5.1053    0.4858    0.1444 C   0  0  0  0  0  0  0  0  0  0  0  0
    5.2582    1.8552    0.0893 C   0  0  0  0  0  0  0  0  0  0  0  0
    6.5268    2.3810    0.1661 C   0  0  0  0  0  0  0  0  0  0  0  0
    7.6577    1.6022    0.2962 C   0  0  0  0  0  0  0  0  0  0  0  0
    7.4895    0.2140    0.3510 C   0  0  0  0  0  0  0  0  0  0  0  0
    6.2148   -0.3128    0.2737 C   0  0  0  0  0  0  0  0  0  0  0  0
    3.6190   -1.4719    0.1204 N   0  0  0  0  0  0  0  0  0  0  0  0
    2.4283   -2.0675    0.0533 C   0  0  0  0  0  0  0  0  0  0  0  0
    2.2452   -3.4748    0.1079 N   0  0  0  0  0  0  0  0  0  0  0  0
    1.2643   -1.3085   -0.0784 C   0  0  0  0  0  0  0  0  0  0  0  0
   -0.7329   -3.3230    0.8962 H   0  0  0  0  0  0  0  0  0  0  0  0
   -1.5768   -3.0146   -0.6592 H   0  0  0  0  0  0  0  0  0  0  0  0
    0.0927   -3.6775   -0.6592 H   0  0  0  0  0  0  0  0  0  0  0  0
   -2.6461   -0.2201    0.5919 H   0  0  0  0  0  0  0  0  0  0  0  0
   -2.4216    0.6596   -0.9581 H   0  0  0  0  0  0  0  0  0  0  0  0
   -2.6064   -1.1271   -0.9581 H   0  0  0  0  0  0  0  0  0  0  0  0
    0.1146    2.1904    1.7748 H   0  0  0  0  0  0  0  0  0  0  0  0
   -0.3091    4.6139    1.7216 H   0  0  0  0  0  0  0  0  0  0  0  0
   -0.7364    5.7781   -0.4173 H   0  0  0  0  0  0  0  0  0  0  0  0
   -0.7363    4.4664   -2.5553 H   0  0  0  0  0  0  0  0  0  0  0  0
   -0.3090    2.0490   -2.4585 H   0  0  0  0  0  0  0  0  0  0  0  0
    4.3832    2.5137   -0.0141 H   0  0  0  0  0  0  0  0  0  0  0  0
    6.6450    3.4738    0.1218 H   0  0  0  0  0  0  0  0  0  0  0  0
    8.6577    2.0567    0.3548 H   0  0  0  0  0  0  0  0  0  0  0  0
    8.3610   -0.4491    0.4543 H   0  0  0  0  0  0  0  0  0  0  0  0
    6.0848   -1.4043    0.3170 H   0  0  0  0  0  0  0  0  0  0  0  0
    1.2972   -3.8735    0.0507 H   0  0  0  0  0  0  0  0  0  0  0  0
    3.0605   -4.0969    0.2046 H   0  0  0  0  0  0  0  0  0  0  0  0
  1  2  1  0
  2  3  2  0
  3  4  1  0
  3  5  1  0
  5  6  1  0
  6  7  2  0
  7  8  1  0
  8  9  2  0
  9 10  1  0
 10 11  2  0
  5 12  1  0
 12 13  2  0
 13 14  1  0
 14 15  1  0
 15 16  2  0
 16 17  1  0
 17 18  2  0
 18 19  1  0
 19 20  2  0
 14 21  2  0
 21 22  1  0
 22 23  1  0
 22 24  2  0
 24  2  1  0
 11  6  1  0
 24 12  1  0
 20 15  1  0
  1 25  1  0
  1 26  1  0
  1 27  1  0
  4 28  1  0
  4 29  1  0
  4 30  1  0
  7 31  1  0
  8 32  1  0
  9 33  1  0
 10 34  1  0
 11 35  1  0
 16 36  1  0
 17 37  1  0
 18 38  1  0
 19 39  1  0
 20 40  1  0
 23 41  1  0
 23 42  1  0
M  END
>  <Original_Name>  (77) 
CHEMBL95101

>  <ROSHAMBO_ComboTanimoto>  (77) 
0.843

>  <ROSHAMBO_ShapeTanimoto>  (77) 
0.505

>  <ROSHAMBO_ColorTanimoto>  (77) 
0.338

>  <ROSHAMBO_FitTverskyCombo>  (77) 
1.313

>  <ROSHAMBO_FitTversky>  (77) 
0.687

>  <ROSHAMBO_FitColorTversky>  (77) 
0.626

>  <ROSHAMBO_RefTverskyCombo>  (77) 
1.079

>  <ROSHAMBO_RefTversky>  (77) 
0.656

>  <ROSHAMBO_RefColorTversky>  (77) 
0.423

>  <ROSHAMBO_Overlap>  (77) 
805.547

$$$$
CHEMBL260615_0_72
     RDKit          3D

 33 35  0  0  0  0  0  0  0  0999 V2000
   -1.1168   -2.3573   -0.0141 N   0  0  0  0  0  0  0  0  0  0  0  0
   -0.0570   -1.8553   -0.0344 C   0  0  0  0  0  0  0  0  0  0  0  0
    1.2448   -1.2285   -0.0789 C   0  0  0  0  0  0  0  0  0  0  0  0
    1.4171    0.1313    0.0590 C   0  0  0  0  0  0  0  0  0  0  0  0
    0.2469    0.9794    0.2544 C   0  0  0  0  0  0  0  0  0  0  0  0
    0.2098    1.9598    1.2350 C   0  0  0  0  0  0  0  0  0  0  0  0
   -0.8962    2.7578    1.4051 C   0  0  0  0  0  0  0  0  0  0  0  0
   -2.0056    2.6123    0.6087 C   0  0  0  0  0  0  0  0  0  0  0  0
   -1.9671    1.6370   -0.3661 C   0  0  0  0  0  0  0  0  0  0  0  0
   -0.8509    0.8199   -0.5499 C   0  0  0  0  0  0  0  0  0  0  0  0
    2.6727    0.6713    0.0171 N   0  0  0  0  0  0  0  0  0  0  0  0
    3.7621   -0.0903   -0.1572 C   0  0  0  0  0  0  0  0  0  0  0  0
    5.1245    0.4136   -0.2118 C   0  0  0  0  0  0  0  0  0  0  0  0
    6.1803   -0.4524   -0.3957 C   0  0  0  0  0  0  0  0  0  0  0  0
    7.4754   -0.0179   -0.4527 C   0  0  0  0  0  0  0  0  0  0  0  0
    7.7809    1.3121   -0.3279 C   0  0  0  0  0  0  0  0  0  0  0  0
    6.7327    2.1852   -0.1438 C   0  0  0  0  0  0  0  0  0  0  0  0
    5.4290    1.7514   -0.0860 C   0  0  0  0  0  0  0  0  0  0  0  0
    3.5633   -1.4072   -0.2885 N   0  0  0  0  0  0  0  0  0  0  0  0
    2.3823   -2.0025   -0.2586 C   0  0  0  0  0  0  0  0  0  0  0  0
    2.2239   -3.4070   -0.4029 N   0  0  0  0  0  0  0  0  0  0  0  0
    1.0827    2.1014    1.8893 H   0  0  0  0  0  0  0  0  0  0  0  0
   -0.8928    3.5259    2.1924 H   0  0  0  0  0  0  0  0  0  0  0  0
   -2.8919    3.2498    0.7431 H   0  0  0  0  0  0  0  0  0  0  0  0
   -2.8423    1.4992   -1.0179 H   0  0  0  0  0  0  0  0  0  0  0  0
   -0.8523    0.0513   -1.3369 H   0  0  0  0  0  0  0  0  0  0  0  0
    5.9745   -1.5280   -0.5000 H   0  0  0  0  0  0  0  0  0  0  0  0
    8.2850   -0.7476   -0.6011 H   0  0  0  0  0  0  0  0  0  0  0  0
    8.8209    1.6675   -0.3730 H   0  0  0  0  0  0  0  0  0  0  0  0
    6.9437    3.2598   -0.0400 H   0  0  0  0  0  0  0  0  0  0  0  0
    4.6195    2.4813    0.0624 H   0  0  0  0  0  0  0  0  0  0  0  0
    1.2830   -3.8250   -0.3728 H   0  0  0  0  0  0  0  0  0  0  0  0
    3.0500   -4.0073   -0.5376 H   0  0  0  0  0  0  0  0  0  0  0  0
  1  2  3  0
  2  3  1  0
  3  4  2  0
  4  5  1  0
  5  6  2  0
  6  7  1  0
  7  8  2  0
  8  9  1  0
  9 10  2  0
  4 11  1  0
 11 12  2  0
 12 13  1  0
 13 14  2  0
 14 15  1  0
 15 16  2  0
 16 17  1  0
 17 18  2  0
 12 19  1  0
 19 20  2  0
 20 21  1  0
 20  3  1  0
 10  5  1  0
 18 13  1  0
  6 22  1  0
  7 23  1  0
  8 24  1  0
  9 25  1  0
 10 26  1  0
 14 27  1  0
 15 28  1  0
 16 29  1  0
 17 30  1  0
 18 31  1  0
 21 32  1  0
 21 33  1  0
M  END
>  <Original_Name>  (78) 
CHEMBL260615

>  <ROSHAMBO_ComboTanimoto>  (78) 
0.841

>  <ROSHAMBO_ShapeTanimoto>  (78) 
0.555

>  <ROSHAMBO_ColorTanimoto>  (78) 
0.286

>  <ROSHAMBO_FitTverskyCombo>  (78) 
1.376

>  <ROSHAMBO_FitTversky>  (78) 
0.785

>  <ROSHAMBO_FitColorTversky>  (78) 
0.591

>  <ROSHAMBO_RefTverskyCombo>  (78) 
1.011

>  <ROSHAMBO_RefTversky>  (78) 
0.654

>  <ROSHAMBO_RefColorTversky>  (78) 
0.357

>  <ROSHAMBO_Overlap>  (78) 
797.165

$$$$
CHEMBL360124_0_4
     RDKit          3D

 36 39  0  0  0  0  0  0  0  0999 V2000
    5.8332   -0.0502    0.0227 C   0  0  0  0  0  0  0  0  0  0  0  0
    4.3630    0.2499    0.0594 C   0  0  0  0  0  0  0  0  0  0  0  0
    3.9103    1.5507    0.1460 C   0  0  0  0  0  0  0  0  0  0  0  0
    2.5442    1.8157    0.1794 C   0  0  0  0  0  0  0  0  0  0  0  0
    1.6123    0.8153    0.1285 C   0  0  0  0  0  0  0  0  0  0  0  0
    0.1071    0.8293    0.1505 C   0  0  0  0  0  0  0  0  0  0  0  0
   -0.2772   -0.5831    0.0609 C   0  0  0  0  0  0  0  0  0  0  0  0
   -1.5100   -1.1886    0.0279 C   0  0  0  0  0  0  0  0  0  0  0  0
   -2.7869   -0.4863    0.0688 C   0  0  0  0  0  0  0  0  0  0  0  0
   -3.7478   -0.8549   -0.8861 C   0  0  0  0  0  0  0  0  0  0  0  0
   -4.9905   -0.2856   -0.9558 C   0  0  0  0  0  0  0  0  0  0  0  0
   -5.3093    0.6989   -0.0398 C   0  0  0  0  0  0  0  0  0  0  0  0
   -4.3852    1.0652    0.8920 C   0  0  0  0  0  0  0  0  0  0  0  0
   -3.1278    0.4866    0.9600 C   0  0  0  0  0  0  0  0  0  0  0  0
   -1.5671   -2.5506   -0.0652 N   0  0  0  0  0  0  0  0  0  0  0  0
   -0.4673   -3.3190   -0.1256 C   0  0  0  0  0  0  0  0  0  0  0  0
   -0.5613   -4.7483   -0.2229 N   0  0  0  0  0  0  0  0  0  0  0  0
    0.7145   -2.6910   -0.0907 N   0  0  0  0  0  0  0  0  0  0  0  0
    0.8865   -1.3612   -0.0008 C   0  0  0  0  0  0  0  0  0  0  0  0
    2.0580   -0.4804    0.0422 C   0  0  0  0  0  0  0  0  0  0  0  0
    3.4166   -0.7479    0.0089 C   0  0  0  0  0  0  0  0  0  0  0  0
    6.2172   -0.1286    1.0505 H   0  0  0  0  0  0  0  0  0  0  0  0
    6.0003   -1.0009   -0.5047 H   0  0  0  0  0  0  0  0  0  0  0  0
    6.3595    0.7591   -0.5047 H   0  0  0  0  0  0  0  0  0  0  0  0
    4.6311    2.3805    0.1888 H   0  0  0  0  0  0  0  0  0  0  0  0
    2.2041    2.8595    0.2486 H   0  0  0  0  0  0  0  0  0  0  0  0
   -0.2635    1.2740    1.0858 H   0  0  0  0  0  0  0  0  0  0  0  0
   -0.3165    1.4296   -0.6681 H   0  0  0  0  0  0  0  0  0  0  0  0
   -3.4895   -1.6390   -1.6131 H   0  0  0  0  0  0  0  0  0  0  0  0
   -5.7154   -0.6028   -1.7199 H   0  0  0  0  0  0  0  0  0  0  0  0
   -6.2977    1.1812   -0.0627 H   0  0  0  0  0  0  0  0  0  0  0  0
   -4.6470    1.8496    1.6174 H   0  0  0  0  0  0  0  0  0  0  0  0
   -2.4099    0.8104    1.7280 H   0  0  0  0  0  0  0  0  0  0  0  0
    0.2950   -5.3189   -0.2679 H   0  0  0  0  0  0  0  0  0  0  0  0
   -1.4851   -5.2031   -0.2476 H   0  0  0  0  0  0  0  0  0  0  0  0
    3.7505   -1.7937   -0.0604 H   0  0  0  0  0  0  0  0  0  0  0  0
  1  2  1  0
  2  3  2  0
  3  4  1  0
  4  5  2  0
  5  6  1  0
  6  7  1  0
  7  8  2  0
  8  9  1  0
  9 10  2  0
 10 11  1  0
 11 12  2  0
 12 13  1  0
 13 14  2  0
  8 15  1  0
 15 16  2  0
 16 17  1  0
 16 18  1  0
 18 19  2  0
 19 20  1  0
 20 21  2  0
 21  2  1  0
 20  5  1  0
 19  7  1  0
 14  9  1  0
  1 22  1  0
  1 23  1  0
  1 24  1  0
  3 25  1  0
  4 26  1  0
  6 27  1  0
  6 28  1  0
 10 29  1  0
 11 30  1  0
 12 31  1  0
 13 32  1  0
 14 33  1  0
 17 34  1  0
 17 35  1  0
 21 36  1  0
M  END
>  <Original_Name>  (79) 
CHEMBL360124

>  <ROSHAMBO_ComboTanimoto>  (79) 
0.841

>  <ROSHAMBO_ShapeTanimoto>  (79) 
0.614

>  <ROSHAMBO_ColorTanimoto>  (79) 
0.226

>  <ROSHAMBO_FitTverskyCombo>  (79) 
1.277

>  <ROSHAMBO_FitTversky>  (79) 
0.832

>  <ROSHAMBO_FitColorTversky>  (79) 
0.445

>  <ROSHAMBO_RefTverskyCombo>  (79) 
1.017

>  <ROSHAMBO_RefTversky>  (79) 
0.701

>  <ROSHAMBO_RefColorTversky>  (79) 
0.315

>  <ROSHAMBO_Overlap>  (79) 
855.597

$$$$
CHEMBL286947_0_53
     RDKit          3D

 35 38  0  0  0  0  0  0  0  0999 V2000
   -0.5540   -4.7760   -0.1280 C   0  0  0  0  0  0  0  0  0  0  0  0
   -1.0173   -3.3766   -0.0760 C   0  0  0  0  0  0  0  0  0  0  0  0
   -2.2836   -2.9329   -0.1038 N   0  0  0  0  0  0  0  0  0  0  0  0
   -2.3045   -1.6140   -0.0383 N   0  0  0  0  0  0  0  0  0  0  0  0
   -3.4862   -0.8196   -0.0451 C   0  0  0  0  0  0  0  0  0  0  0  0
   -3.4810    0.4896   -0.4368 C   0  0  0  0  0  0  0  0  0  0  0  0
   -4.6661    1.2348   -0.4283 C   0  0  0  0  0  0  0  0  0  0  0  0
   -5.8500    0.6645   -0.0274 C   0  0  0  0  0  0  0  0  0  0  0  0
   -5.8660   -0.6730    0.3749 C   0  0  0  0  0  0  0  0  0  0  0  0
   -7.0595   -1.3184    0.8001 N   0  0  0  0  0  0  0  0  0  0  0  0
   -4.6883   -1.3675    0.3527 C   0  0  0  0  0  0  0  0  0  0  0  0
   -1.0153   -1.1749    0.0349 C   0  0  0  0  0  0  0  0  0  0  0  0
   -0.2074   -2.2829    0.0111 C   0  0  0  0  0  0  0  0  0  0  0  0
    1.1797   -2.1155    0.0744 C   0  0  0  0  0  0  0  0  0  0  0  0
    1.9047   -3.1212    0.0526 O   0  0  0  0  0  0  0  0  0  0  0  0
    1.6417   -0.8215    0.1578 C   0  0  0  0  0  0  0  0  0  0  0  0
    3.0053   -0.6220    0.2218 C   0  0  0  0  0  0  0  0  0  0  0  0
    3.4697    0.6671    0.3050 C   0  0  0  0  0  0  0  0  0  0  0  0
    2.5845    1.7227    0.3231 C   0  0  0  0  0  0  0  0  0  0  0  0
    1.2241    1.5387    0.2600 C   0  0  0  0  0  0  0  0  0  0  0  0
    0.7394    0.2269    0.1748 C   0  0  0  0  0  0  0  0  0  0  0  0
   -0.5662    0.0388    0.1137 O   0  0  0  0  0  0  0  0  0  0  0  0
   -0.4273   -5.1586    0.8955 H   0  0  0  0  0  0  0  0  0  0  0  0
   -1.2972   -5.3888   -0.6592 H   0  0  0  0  0  0  0  0  0  0  0  0
    0.4081   -4.8243   -0.6592 H   0  0  0  0  0  0  0  0  0  0  0  0
   -2.5409    0.9603   -0.7605 H   0  0  0  0  0  0  0  0  0  0  0  0
   -4.6493    2.2878   -0.7458 H   0  0  0  0  0  0  0  0  0  0  0  0
   -6.7773    1.2562   -0.0233 H   0  0  0  0  0  0  0  0  0  0  0  0
   -7.0354   -2.3064    1.0903 H   0  0  0  0  0  0  0  0  0  0  0  0
   -7.9481   -0.7979    0.8180 H   0  0  0  0  0  0  0  0  0  0  0  0
   -4.7000   -2.4209    0.6694 H   0  0  0  0  0  0  0  0  0  0  0  0
    3.7019   -1.4733    0.2066 H   0  0  0  0  0  0  0  0  0  0  0  0
    4.5518    0.8579    0.3575 H   0  0  0  0  0  0  0  0  0  0  0  0
    2.9798    2.7470    0.3903 H   0  0  0  0  0  0  0  0  0  0  0  0
    0.5357    2.3965    0.2759 H   0  0  0  0  0  0  0  0  0  0  0  0
  1  2  1  0
  2  3  2  0
  3  4  1  0
  4  5  1  0
  5  6  2  0
  6  7  1  0
  7  8  2  0
  8  9  1  0
  9 10  1  0
  9 11  2  0
  4 12  1  0
 12 13  2  0
 13 14  1  0
 14 15  2  0
 14 16  1  0
 16 17  2  0
 17 18  1  0
 18 19  2  0
 19 20  1  0
 20 21  2  0
 21 22  1  0
 13  2  1  0
 21 16  1  0
 11  5  1  0
 22 12  1  0
  1 23  1  0
  1 24  1  0
  1 25  1  0
  6 26  1  0
  7 27  1  0
  8 28  1  0
 10 29  1  0
 10 30  1  0
 11 31  1  0
 17 32  1  0
 18 33  1  0
 19 34  1  0
 20 35  1  0
M  END
>  <Original_Name>  (80) 
CHEMBL286947

>  <ROSHAMBO_ComboTanimoto>  (80) 
0.838

>  <ROSHAMBO_ShapeTanimoto>  (80) 
0.597

>  <ROSHAMBO_ColorTanimoto>  (80) 
0.241

>  <ROSHAMBO_FitTverskyCombo>  (80) 
1.245

>  <ROSHAMBO_FitTversky>  (80) 
0.788

>  <ROSHAMBO_FitColorTversky>  (80) 
0.457

>  <ROSHAMBO_RefTverskyCombo>  (80) 
1.05

>  <ROSHAMBO_RefTversky>  (80) 
0.711

>  <ROSHAMBO_RefColorTversky>  (80) 
0.339

>  <ROSHAMBO_Overlap>  (80) 
870.028

$$$$
CHEMBL17103_0_40
     RDKit          3D

 69 73  0  0  0  0  0  0  0  0999 V2000
   11.4082    3.1420   -1.2632 O   0  0  0  0  0  1  0  0  0  0  0  0
   10.7850    1.8966   -1.2319 C   0  0  0  0  0  0  0  0  0  0  0  0
   11.5044    0.8879   -1.4371 O   0  0  0  0  0  0  0  0  0  0  0  0
    9.3589    1.8097   -0.9693 C   0  0  0  0  0  0  0  0  0  0  0  0
    8.7702    0.6569   -0.9390 C   0  0  0  0  0  0  0  0  0  0  0  0
    7.3449    0.4480   -0.6853 C   0  0  0  0  0  0  0  0  0  0  0  0
    6.4559    1.4723   -0.4503 C   0  0  0  0  0  0  0  0  0  0  0  0
    5.1100    1.2160   -0.2136 C   0  0  0  0  0  0  0  0  0  0  0  0
    4.6115   -0.0621   -0.2042 C   0  0  0  0  0  0  0  0  0  0  0  0
    5.4801   -1.1024   -0.4365 C   0  0  0  0  0  0  0  0  0  0  0  0
    6.8158   -0.8305   -0.6701 C   0  0  0  0  0  0  0  0  0  0  0  0
    3.1877   -0.3119    0.0461 C   0  0  0  0  0  0  0  0  0  0  0  0
    2.2183    0.5880    0.2870 N   0  0  0  0  0  0  0  0  0  0  0  0
    1.0291   -0.0146    0.4681 C   0  0  0  0  0  0  0  0  0  0  0  0
    1.2671   -1.3618    0.3338 C   0  0  0  0  0  0  0  0  0  0  0  0
    2.5799   -1.5123    0.0793 N   0  0  0  0  0  0  0  0  0  0  0  0
    0.2176   -2.2007    0.4717 N   0  0  0  0  0  0  0  0  0  0  0  0
    0.5082   -3.6099    0.3499 C   0  0  0  0  0  0  0  0  0  0  0  0
    0.4467   -4.1358   -1.0577 C   0  0  0  0  0  0  0  0  0  0  0  0
    0.7583   -5.6094   -1.1165 C   0  0  0  0  0  0  0  0  0  0  0  0
   -0.2923   -6.3681   -1.9091 C   0  0  0  0  0  0  0  0  0  0  0  0
   -0.4862   -5.7299   -3.2738 C   0  0  0  0  0  0  0  0  0  0  0  0
   -0.9488   -4.2962   -3.1245 C   0  0  0  0  0  0  0  0  0  0  0  0
   -0.8861   -3.8535   -1.6690 C   0  0  0  0  0  0  0  0  0  0  0  0
   -1.0243   -1.7310    0.7329 C   0  0  0  0  0  0  0  0  0  0  0  0
   -1.9899   -2.5427    0.8592 O   0  0  0  0  0  0  0  0  0  0  0  0
   -1.2994   -0.4221    0.8717 N   0  0  0  0  0  0  0  0  0  0  0  0
   -2.6328    0.0185    1.1441 C   0  0  0  0  0  0  0  0  0  0  0  0
   -3.4736    0.3802   -0.0249 C   0  0  0  0  0  0  0  0  0  0  0  0
   -3.6831   -0.7277   -0.9939 C   0  0  0  0  0  0  0  0  0  0  0  0
   -4.4314   -0.1839   -2.1966 C   0  0  0  0  0  0  0  0  0  0  0  0
   -5.7578    0.3283   -1.7517 C   0  0  0  0  0  0  0  0  0  0  0  0
   -5.9818    0.2427   -0.2798 C   0  0  0  0  0  0  0  0  0  0  0  0
   -4.8492    0.7622    0.5397 C   0  0  0  0  0  0  0  0  0  0  0  0
   -0.2599    0.4261    0.7363 C   0  0  0  0  0  0  0  0  0  0  0  0
   -0.4330    1.6493    0.8506 O   0  0  0  0  0  0  0  0  0  0  0  0
    8.7770    2.7268   -0.7955 H   0  0  0  0  0  0  0  0  0  0  0  0
    9.3898   -0.2342   -1.1180 H   0  0  0  0  0  0  0  0  0  0  0  0
    6.8164    2.5115   -0.4499 H   0  0  0  0  0  0  0  0  0  0  0  0
    4.4279    2.0591   -0.0292 H   0  0  0  0  0  0  0  0  0  0  0  0
    5.1161   -2.1404   -0.4365 H   0  0  0  0  0  0  0  0  0  0  0  0
    7.4945   -1.6765   -0.8538 H   0  0  0  0  0  0  0  0  0  0  0  0
    3.0515   -2.4159   -0.0687 H   0  0  0  0  0  0  0  0  0  0  0  0
    1.5214   -3.7875    0.7399 H   0  0  0  0  0  0  0  0  0  0  0  0
   -0.2686   -4.1418    0.9189 H   0  0  0  0  0  0  0  0  0  0  0  0
    1.2178   -3.6110   -1.6407 H   0  0  0  0  0  0  0  0  0  0  0  0
    1.7382   -5.7489   -1.5963 H   0  0  0  0  0  0  0  0  0  0  0  0
    0.7666   -6.0022   -0.0890 H   0  0  0  0  0  0  0  0  0  0  0  0
    0.0339   -7.4105   -2.0391 H   0  0  0  0  0  0  0  0  0  0  0  0
   -1.2455   -6.3369   -1.3610 H   0  0  0  0  0  0  0  0  0  0  0  0
    0.4678   -5.7478   -3.8212 H   0  0  0  0  0  0  0  0  0  0  0  0
   -1.2501   -6.2957   -3.8272 H   0  0  0  0  0  0  0  0  0  0  0  0
   -0.3001   -3.6438   -3.7276 H   0  0  0  0  0  0  0  0  0  0  0  0
   -1.9912   -4.2257   -3.4686 H   0  0  0  0  0  0  0  0  0  0  0  0
   -1.0788   -2.7718   -1.6177 H   0  0  0  0  0  0  0  0  0  0  0  0
   -1.6449   -4.4188   -1.1079 H   0  0  0  0  0  0  0  0  0  0  0  0
   -3.1459   -0.7905    1.6847 H   0  0  0  0  0  0  0  0  0  0  0  0
   -2.5152    0.9529    1.7124 H   0  0  0  0  0  0  0  0  0  0  0  0
   -2.9617    1.1852   -0.5724 H   0  0  0  0  0  0  0  0  0  0  0  0
   -2.7102   -1.1295   -1.3134 H   0  0  0  0  0  0  0  0  0  0  0  0
   -4.2643   -1.5341   -0.5229 H   0  0  0  0  0  0  0  0  0  0  0  0
   -3.8537    0.6343   -2.6513 H   0  0  0  0  0  0  0  0  0  0  0  0
   -4.5717   -0.9830   -2.9394 H   0  0  0  0  0  0  0  0  0  0  0  0
   -5.8393    1.3832   -2.0526 H   0  0  0  0  0  0  0  0  0  0  0  0
   -6.5189   -0.3091   -2.2257 H   0  0  0  0  0  0  0  0  0  0  0  0
   -6.8821    0.8245   -0.0329 H   0  0  0  0  0  0  0  0  0  0  0  0
   -6.0859   -0.8249   -0.0363 H   0  0  0  0  0  0  0  0  0  0  0  0
   -4.9194    1.8593    0.5787 H   0  0  0  0  0  0  0  0  0  0  0  0
   -4.9316    0.3089    1.5386 H   0  0  0  0  0  0  0  0  0  0  0  0
  1  2  1  0
  2  3  2  0
  2  4  1  0
  4  5  2  3
  5  6  1  0
  6  7  2  0
  7  8  1  0
  8  9  2  0
  9 10  1  0
 10 11  2  0
  9 12  1  0
 12 13  2  0
 13 14  1  0
 14 15  2  0
 15 16  1  0
 15 17  1  0
 17 18  1  0
 18 19  1  0
 19 20  1  0
 20 21  1  0
 21 22  1  0
 22 23  1  0
 23 24  1  0
 17 25  1  0
 25 26  2  0
 25 27  1  0
 27 28  1  0
 28 29  1  0
 29 30  1  0
 30 31  1  0
 31 32  1  0
 32 33  1  0
 33 34  1  0
 27 35  1  0
 35 36  2  0
 11  6  1  0
 16 12  1  0
 24 19  1  0
 34 29  1  0
 35 14  1  0
  4 37  1  0
  5 38  1  0
  7 39  1  0
  8 40  1  0
 10 41  1  0
 11 42  1  0
 16 43  1  0
 18 44  1  0
 18 45  1  0
 19 46  1  0
 20 47  1  0
 20 48  1  0
 21 49  1  0
 21 50  1  0
 22 51  1  0
 22 52  1  0
 23 53  1  0
 23 54  1  0
 24 55  1  0
 24 56  1  0
 28 57  1  0
 28 58  1  0
 29 59  1  0
 30 60  1  0
 30 61  1  0
 31 62  1  0
 31 63  1  0
 32 64  1  0
 32 65  1  0
 33 66  1  0
 33 67  1  0
 34 68  1  0
 34 69  1  0
M  CHG  1   1  -1
M  END
>  <Original_Name>  (81) 
CHEMBL17103

>  <ROSHAMBO_ComboTanimoto>  (81) 
0.837

>  <ROSHAMBO_ShapeTanimoto>  (81) 
0.55

>  <ROSHAMBO_ColorTanimoto>  (81) 
0.288

>  <ROSHAMBO_FitTverskyCombo>  (81) 
1.075

>  <ROSHAMBO_FitTversky>  (81) 
0.619

>  <ROSHAMBO_FitColorTversky>  (81) 
0.456

>  <ROSHAMBO_RefTverskyCombo>  (81) 
1.269

>  <ROSHAMBO_RefTversky>  (81) 
0.831

>  <ROSHAMBO_RefColorTversky>  (81) 
0.438

>  <ROSHAMBO_Overlap>  (81) 
1042.504

$$$$
CHEMBL591999_0_80
     RDKit          3D

 54 56  0  0  0  0  0  0  0  0999 V2000
   -8.3225   -0.0020    1.3552 C   0  0  0  0  0  0  0  0  0  0  0  0
   -6.9517    0.4986    0.7585 C   0  0  0  0  0  0  0  0  0  0  0  0
   -7.1214    0.8689   -0.6642 C   0  0  0  0  0  0  0  0  0  0  0  0
   -5.9458    1.6273   -1.2238 C   0  0  0  0  0  0  0  0  0  0  0  0
   -4.6645    0.7405   -0.9544 C   0  0  0  0  0  0  0  0  0  0  0  0
   -3.7286    0.0677   -0.7533 C   0  0  0  0  0  0  0  0  0  0  0  0
   -2.5423   -0.7590   -0.5089 C   0  0  0  0  0  0  0  0  0  0  0  0
   -2.9440   -2.0111   -0.0410 N   0  0  0  0  0  0  0  0  0  0  0  0
   -2.0922   -2.9006    0.4733 C   0  0  0  0  0  0  0  0  0  0  0  0
   -2.4118   -4.2476    0.6988 N   0  0  0  0  0  0  0  0  0  0  0  0
   -0.7783   -2.5095    0.5410 C   0  0  0  0  0  0  0  0  0  0  0  0
    0.2359   -3.1109    0.9448 N   0  0  0  0  0  0  0  0  0  0  0  0
    1.3623   -2.4066    0.7758 C   0  0  0  0  0  0  0  0  0  0  0  0
    1.0293   -1.3165    0.2412 N   0  0  0  0  0  0  0  0  0  0  0  0
    1.9861   -0.3641   -0.3306 C   0  0  2  0  0  0  0  0  0  0  0  0
    3.3584   -1.0321   -0.5191 C   0  0  0  0  0  0  0  0  0  0  0  0
    4.3314    0.1240   -0.4971 C   0  0  2  0  0  0  0  0  0  0  0  0
    5.2838   -0.0203    0.6533 N   0  0  0  0  0  0  0  0  0  0  0  0
    6.2718    1.1072    0.6020 C   0  0  0  0  0  0  0  0  0  0  0  0
    6.0884    1.8355   -0.4035 O   0  0  0  0  0  0  0  0  0  0  0  0
    7.2896    1.3164    1.5945 C   0  0  0  0  0  0  0  0  0  0  0  0
    6.7135    1.9959    2.8583 C   0  0  0  0  0  0  0  0  0  0  0  0
    3.5395    1.4166   -0.2050 C   0  0  1  0  0  0  0  0  0  0  0  0
    3.0875    1.8175   -1.4729 O   0  0  0  0  0  0  0  0  0  0  0  0
    2.3205    0.8057    0.5340 C   0  0  1  0  0  0  0  0  0  0  0  0
    1.2889    1.7401    0.6196 O   0  0  0  0  0  0  0  0  0  0  0  0
   -0.3314   -1.1434    0.0332 C   0  0  0  0  0  0  0  0  0  0  0  0
   -1.2852   -0.3782   -0.4568 N   0  0  0  0  0  0  0  0  0  0  0  0
   -8.2726    0.0162    2.4540 H   0  0  0  0  0  0  0  0  0  0  0  0
   -9.1337    0.6579    1.0141 H   0  0  0  0  0  0  0  0  0  0  0  0
   -8.5175   -1.0294    1.0141 H   0  0  0  0  0  0  0  0  0  0  0  0
   -6.6075    1.3768    1.3244 H   0  0  0  0  0  0  0  0  0  0  0  0
   -6.2094   -0.3097    0.8340 H   0  0  0  0  0  0  0  0  0  0  0  0
   -7.2556   -0.0515   -1.2515 H   0  0  0  0  0  0  0  0  0  0  0  0
   -7.9979    1.5306   -0.7277 H   0  0  0  0  0  0  0  0  0  0  0  0
   -6.0767    1.7863   -2.3044 H   0  0  0  0  0  0  0  0  0  0  0  0
   -5.8503    2.6155   -0.7503 H   0  0  0  0  0  0  0  0  0  0  0  0
   -1.7078   -4.8839    1.0993 H   0  0  0  0  0  0  0  0  0  0  0  0
   -3.3506   -4.6005    0.4639 H   0  0  0  0  0  0  0  0  0  0  0  0
    2.3804   -2.7196    1.0505 H   0  0  0  0  0  0  0  0  0  0  0  0
    1.4815   -0.0375   -1.2519 H   0  0  0  0  0  0  0  0  0  0  0  0
    3.5674   -1.7352    0.3006 H   0  0  0  0  0  0  0  0  0  0  0  0
    3.4199   -1.6207   -1.4464 H   0  0  0  0  0  0  0  0  0  0  0  0
    4.8648    0.1483   -1.4588 H   0  0  0  0  0  0  0  0  0  0  0  0
    5.2628   -0.7689    1.3605 H   0  0  0  0  0  0  0  0  0  0  0  0
    7.7205    0.3442    1.8758 H   0  0  0  0  0  0  0  0  0  0  0  0
    8.0596    1.9756    1.1674 H   0  0  0  0  0  0  0  0  0  0  0  0
    7.1250    1.5105    3.7555 H   0  0  0  0  0  0  0  0  0  0  0  0
    6.9879    3.0611    2.8592 H   0  0  0  0  0  0  0  0  0  0  0  0
    5.6177    1.8995    2.8592 H   0  0  0  0  0  0  0  0  0  0  0  0
    4.0524    2.2323    0.3257 H   0  0  0  0  0  0  0  0  0  0  0  0
    2.3509    2.4708   -1.3694 H   0  0  0  0  0  0  0  0  0  0  0  0
    2.5070    0.5115    1.5774 H   0  0  0  0  0  0  0  0  0  0  0  0
    1.0873    1.9228    1.5715 H   0  0  0  0  0  0  0  0  0  0  0  0
  1  2  1  0
  2  3  1  0
  3  4  1  0
  4  5  1  0
  5  6  3  0
  6  7  1  0
  7  8  2  0
  8  9  1  0
  9 10  1  0
  9 11  2  0
 11 12  1  0
 12 13  2  0
 13 14  1  0
 14 15  1  0
 15 16  1  0
 16 17  1  0
 17 18  1  0
 18 19  1  0
 19 20  2  0
 19 21  1  0
 21 22  1  0
 17 23  1  0
 23 24  1  0
 23 25  1  0
 25 26  1  0
 14 27  1  0
 27 28  2  0
 28  7  1  0
 27 11  1  0
 25 15  1  0
  1 29  1  0
  1 30  1  0
  1 31  1  0
  2 32  1  0
  2 33  1  0
  3 34  1  0
  3 35  1  0
  4 36  1  0
  4 37  1  0
 10 38  1  0
 10 39  1  0
 13 40  1  0
 15 41  1  6
 16 42  1  0
 16 43  1  0
 17 44  1  6
 18 45  1  0
 21 46  1  0
 21 47  1  0
 22 48  1  0
 22 49  1  0
 22 50  1  0
 23 51  1  1
 24 52  1  0
 25 53  1  1
 26 54  1  0
M  END
>  <Original_Name>  (82) 
CHEMBL591999

>  <ROSHAMBO_ComboTanimoto>  (82) 
0.834

>  <ROSHAMBO_ShapeTanimoto>  (82) 
0.655

>  <ROSHAMBO_ColorTanimoto>  (82) 
0.178

>  <ROSHAMBO_FitTverskyCombo>  (82) 
1.063

>  <ROSHAMBO_FitTversky>  (82) 
0.775

>  <ROSHAMBO_FitColorTversky>  (82) 
0.289

>  <ROSHAMBO_RefTverskyCombo>  (82) 
1.127

>  <ROSHAMBO_RefTversky>  (82) 
0.81

>  <ROSHAMBO_RefColorTversky>  (82) 
0.317

>  <ROSHAMBO_Overlap>  (82) 
998.96

$$$$
CHEMBL272679_0_91
     RDKit          3D

 59 62  0  0  0  0  0  0  0  0999 V2000
    0.2278   -6.0515    2.4454 C   0  0  0  0  0  0  0  0  0  0  0  0
    0.4703   -4.5785    2.4567 C   0  0  0  0  0  0  0  0  0  0  0  0
    0.4405   -3.7772    3.5866 C   0  0  0  0  0  0  0  0  0  0  0  0
    0.7149   -2.4975    3.1531 C   0  0  0  0  0  0  0  0  0  0  0  0
    0.8996   -2.5700    1.7861 C   0  0  0  0  0  0  0  0  0  0  0  0
    1.2156   -1.4069    0.9300 C   0  0  0  0  0  0  0  0  0  0  0  0
    0.2369   -0.7734    0.2723 N   0  0  0  0  0  0  0  0  0  0  0  0
    0.4871    0.2930   -0.5192 C   0  0  0  0  0  0  0  0  0  0  0  0
   -0.5583    0.9625   -1.2162 N   0  0  0  0  0  0  0  0  0  0  0  0
   -1.8949    0.4976   -1.0755 C   0  0  0  0  0  0  0  0  0  0  0  0
   -2.0401   -0.5071   -0.3148 O   0  0  0  0  0  0  0  0  0  0  0  0
   -3.0252    1.1476   -1.7714 C   0  0  0  0  0  0  0  0  0  0  0  0
   -4.3488    0.5601   -1.3712 C   0  0  0  0  0  0  0  0  0  0  0  0
   -4.5479    0.7724    0.1085 C   0  0  0  0  0  0  0  0  0  0  0  0
   -5.9939    0.4505    0.4724 C   0  0  0  0  0  0  0  0  0  0  0  0
   -6.8261    1.4120   -0.2206 N   0  0  0  0  0  4  0  0  0  0  0  0
   -8.1602    1.3879    0.3389 C   0  0  0  0  0  0  0  0  0  0  0  0
   -6.8138    1.0150   -1.6191 C   0  0  0  0  0  0  0  0  0  0  0  0
   -5.4459    1.2384   -2.1694 C   0  0  0  0  0  0  0  0  0  0  0  0
    1.7963    0.7046   -0.6228 C   0  0  0  0  0  0  0  0  0  0  0  0
    2.8103    0.0703    0.0415 C   0  0  0  0  0  0  0  0  0  0  0  0
    4.1727    0.4996   -0.0672 N   0  0  0  0  0  0  0  0  0  0  0  0
    4.5706    1.7458   -0.0693 N   0  0  0  0  0  0  0  0  0  0  0  0
    5.9125    1.8212   -0.1855 C   0  0  0  0  0  0  0  0  0  0  0  0
    6.6994    3.0675   -0.2219 C   0  0  0  0  0  0  0  0  0  0  0  0
    6.3644    0.5217   -0.2595 C   0  0  0  0  0  0  0  0  0  0  0  0
    5.2421   -0.3020   -0.1825 C   0  0  0  0  0  0  0  0  0  0  0  0
    5.1889   -1.7752   -0.2166 C   0  0  0  0  0  0  0  0  0  0  0  0
    2.4924   -1.0014    0.8257 N   0  0  0  0  0  0  0  0  0  0  0  0
    0.7418   -3.8120    1.4522 O   0  0  0  0  0  0  0  0  0  0  0  0
    0.1669   -6.4210    3.4797 H   0  0  0  0  0  0  0  0  0  0  0  0
   -0.7174   -6.2636    1.9241 H   0  0  0  0  0  0  0  0  0  0  0  0
    1.0550   -6.5554    1.9241 H   0  0  0  0  0  0  0  0  0  0  0  0
    0.2388   -4.0970    4.6196 H   0  0  0  0  0  0  0  0  0  0  0  0
    0.7752   -1.5928    3.7759 H   0  0  0  0  0  0  0  0  0  0  0  0
   -0.3491    1.7739   -1.8153 H   0  0  0  0  0  0  0  0  0  0  0  0
   -3.0240    2.2196   -1.5251 H   0  0  0  0  0  0  0  0  0  0  0  0
   -2.8957    0.9859   -2.8517 H   0  0  0  0  0  0  0  0  0  0  0  0
   -4.3773   -0.5197   -1.5793 H   0  0  0  0  0  0  0  0  0  0  0  0
   -3.8714    0.1106    0.6692 H   0  0  0  0  0  0  0  0  0  0  0  0
   -4.3272    1.8193    0.3642 H   0  0  0  0  0  0  0  0  0  0  0  0
   -6.2467   -0.5704    0.1501 H   0  0  0  0  0  0  0  0  0  0  0  0
   -6.1483    0.5076    1.5600 H   0  0  0  0  0  0  0  0  0  0  0  0
   -6.4827    2.3781   -0.1226 H   0  0  0  0  0  0  0  0  0  0  0  0
   -8.0974    1.3890    1.4371 H   0  0  0  0  0  0  0  0  0  0  0  0
   -8.7151    2.2761    0.0024 H   0  0  0  0  0  0  0  0  0  0  0  0
   -8.6826    0.4801    0.0024 H   0  0  0  0  0  0  0  0  0  0  0  0
   -7.0771   -0.0497   -1.7036 H   0  0  0  0  0  0  0  0  0  0  0  0
   -7.5460    1.6110   -2.1836 H   0  0  0  0  0  0  0  0  0  0  0  0
   -5.4178    0.8499   -3.1981 H   0  0  0  0  0  0  0  0  0  0  0  0
   -5.2541    2.3206   -2.1239 H   0  0  0  0  0  0  0  0  0  0  0  0
    2.0347    1.5697   -1.2590 H   0  0  0  0  0  0  0  0  0  0  0  0
    6.9087    3.3991    0.8058 H   0  0  0  0  0  0  0  0  0  0  0  0
    7.6477    2.8872   -0.7493 H   0  0  0  0  0  0  0  0  0  0  0  0
    6.1288    3.8461   -0.7493 H   0  0  0  0  0  0  0  0  0  0  0  0
    7.4103    0.1964   -0.3602 H   0  0  0  0  0  0  0  0  0  0  0  0
    5.1748   -2.1655    0.8117 H   0  0  0  0  0  0  0  0  0  0  0  0
    4.2785   -2.0971   -0.7435 H   0  0  0  0  0  0  0  0  0  0  0  0
    6.0736   -2.1620   -0.7435 H   0  0  0  0  0  0  0  0  0  0  0  0
  1  2  1  0
  2  3  2  0
  3  4  1  0
  4  5  2  0
  5  6  1  0
  6  7  2  0
  7  8  1  0
  8  9  1  0
  9 10  1  0
 10 11  2  0
 10 12  1  0
 12 13  1  0
 13 14  1  0
 14 15  1  0
 15 16  1  0
 16 17  1  0
 16 18  1  0
 18 19  1  0
  8 20  2  0
 20 21  1  0
 21 22  1  0
 22 23  1  0
 23 24  2  0
 24 25  1  0
 24 26  1  0
 26 27  2  0
 27 28  1  0
 21 29  2  0
  5 30  1  0
 30  2  1  0
 29  6  1  0
 19 13  1  0
 27 22  1  0
  1 31  1  0
  1 32  1  0
  1 33  1  0
  3 34  1  0
  4 35  1  0
  9 36  1  0
 12 37  1  0
 12 38  1  0
 13 39  1  0
 14 40  1  0
 14 41  1  0
 15 42  1  0
 15 43  1  0
 16 44  1  0
 17 45  1  0
 17 46  1  0
 17 47  1  0
 18 48  1  0
 18 49  1  0
 19 50  1  0
 19 51  1  0
 20 52  1  0
 25 53  1  0
 25 54  1  0
 25 55  1  0
 26 56  1  0
 28 57  1  0
 28 58  1  0
 28 59  1  0
M  CHG  1  16   1
M  END
>  <Original_Name>  (83) 
CHEMBL272679

>  <ROSHAMBO_ComboTanimoto>  (83) 
0.833

>  <ROSHAMBO_ShapeTanimoto>  (83) 
0.517

>  <ROSHAMBO_ColorTanimoto>  (83) 
0.316

>  <ROSHAMBO_FitTverskyCombo>  (83) 
1.164

>  <ROSHAMBO_FitTversky>  (83) 
0.64

>  <ROSHAMBO_FitColorTversky>  (83) 
0.524

>  <ROSHAMBO_RefTverskyCombo>  (83) 
1.173

>  <ROSHAMBO_RefTversky>  (83) 
0.73

>  <ROSHAMBO_RefColorTversky>  (83) 
0.443

>  <ROSHAMBO_Overlap>  (83) 
905.048

$$$$
CHEMBL406298_0_4
     RDKit          3D

 22 24  0  0  0  0  0  0  0  0999 V2000
    0.2462   -3.3033    0.1237 N   0  0  0  0  0  0  0  0  0  0  0  0
    0.8184   -1.9753    0.2312 C   0  0  0  0  0  0  0  0  0  0  0  0
    2.1437   -1.8565   -0.0098 N   0  0  0  0  0  0  0  0  0  0  0  0
    2.6424   -0.5937    0.1013 C   0  0  0  0  0  0  0  0  0  0  0  0
    4.0422   -0.3034   -0.1259 C   0  0  0  0  0  0  0  0  0  0  0  0
    5.0145   -1.2119   -0.4677 C   0  0  0  0  0  0  0  0  0  0  0  0
    6.2220   -0.5222   -0.5909 C   0  0  0  0  0  0  0  0  0  0  0  0
    5.8905    0.7849   -0.3091 C   0  0  0  0  0  0  0  0  0  0  0  0
    4.6147    0.8491   -0.0475 O   0  0  0  0  0  0  0  0  0  0  0  0
    1.8060    0.4481    0.4384 C   0  0  0  0  0  0  0  0  0  0  0  0
    2.0912    2.2224    0.6763 S   0  0  0  0  0  0  0  0  0  0  0  0
    0.4037    2.6174    1.0736 C   0  0  0  0  0  0  0  0  0  0  0  0
   -0.2320    1.4212    1.0005 C   0  0  0  0  0  0  0  0  0  0  0  0
    0.4589    0.3329    0.6843 C   0  0  0  0  0  0  0  0  0  0  0  0
    0.0231   -0.9680    0.5545 N   0  0  0  0  0  0  0  0  0  0  0  0
   -0.7588   -3.4467    0.2977 H   0  0  0  0  0  0  0  0  0  0  0  0
    0.8448   -4.1033   -0.1265 H   0  0  0  0  0  0  0  0  0  0  0  0
    4.8675   -2.2917   -0.6177 H   0  0  0  0  0  0  0  0  0  0  0  0
    7.2101   -0.9287   -0.8526 H   0  0  0  0  0  0  0  0  0  0  0  0
    6.5880    1.6354   -0.3054 H   0  0  0  0  0  0  0  0  0  0  0  0
   -0.0241    3.6003    1.3206 H   0  0  0  0  0  0  0  0  0  0  0  0
   -1.3113    1.3537    1.2016 H   0  0  0  0  0  0  0  0  0  0  0  0
  1  2  1  0
  2  3  2  0
  3  4  1  0
  4  5  1  0
  5  6  2  0
  6  7  1  0
  7  8  2  0
  8  9  1  0
  4 10  2  0
 10 11  1  0
 11 12  1  0
 12 13  2  0
 13 14  1  0
 14 15  2  0
 15  2  1  0
  9  5  1  0
 14 10  1  0
  1 16  1  0
  1 17  1  0
  6 18  1  0
  7 19  1  0
  8 20  1  0
 12 21  1  0
 13 22  1  0
M  END
>  <Original_Name>  (84) 
CHEMBL406298

>  <ROSHAMBO_ComboTanimoto>  (84) 
0.832

>  <ROSHAMBO_ShapeTanimoto>  (84) 
0.525

>  <ROSHAMBO_ColorTanimoto>  (84) 
0.307

>  <ROSHAMBO_FitTverskyCombo>  (84) 
1.504

>  <ROSHAMBO_FitTversky>  (84) 
0.902

>  <ROSHAMBO_FitColorTversky>  (84) 
0.603

>  <ROSHAMBO_RefTverskyCombo>  (84) 
0.942

>  <ROSHAMBO_RefTversky>  (84) 
0.557

>  <ROSHAMBO_RefColorTversky>  (84) 
0.385

>  <ROSHAMBO_Overlap>  (84) 
671.278

$$$$
CHEMBL178435_0_45
     RDKit          3D

 37 40  0  0  0  0  0  0  0  0999 V2000
    5.4931   -0.6157   -0.0605 C   0  0  0  0  0  0  0  0  0  0  0  0
    4.0670   -0.2178    0.0659 C   0  0  0  0  0  0  0  0  0  0  0  0
    3.7214    1.1017    0.2816 C   0  0  0  0  0  0  0  0  0  0  0  0
    2.4217    1.5378    0.4079 C   0  0  0  0  0  0  0  0  0  0  0  0
    1.4058    0.6109    0.3148 C   0  0  0  0  0  0  0  0  0  0  0  0
   -0.0578    0.7921    0.4101 C   0  0  0  0  0  0  0  0  0  0  0  0
   -0.5851   -0.5714    0.2283 C   0  0  0  0  0  0  0  0  0  0  0  0
   -1.8994   -1.0256    0.2206 C   0  0  0  0  0  0  0  0  0  0  0  0
   -3.0147   -0.0634    0.4179 C   0  0  0  0  0  0  0  0  0  0  0  0
   -3.4530    0.4717   -0.9267 C   0  0  0  0  0  0  0  0  0  0  0  0
   -4.9541    0.3384   -0.8548 C   0  0  0  0  0  0  0  0  0  0  0  0
   -5.2426   -0.1114    0.5621 C   0  0  0  0  0  0  0  0  0  0  0  0
   -6.7519   -1.3363    0.5545 Br  0  0  0  0  0  0  0  0  0  0  0  0
   -4.0833   -0.7283    0.9704 O   0  0  0  0  0  0  0  0  0  0  0  0
   -2.1010   -2.3395    0.0311 N   0  0  0  0  0  0  0  0  0  0  0  0
   -1.0762   -3.2156   -0.1490 C   0  0  0  0  0  0  0  0  0  0  0  0
   -1.3249   -4.5959   -0.3463 N   0  0  0  0  0  0  0  0  0  0  0  0
    0.2025   -2.7653   -0.1402 N   0  0  0  0  0  0  0  0  0  0  0  0
    0.4326   -1.4562    0.0472 C   0  0  0  0  0  0  0  0  0  0  0  0
    1.6878   -0.7173    0.1007 C   0  0  0  0  0  0  0  0  0  0  0  0
    3.0249   -1.1154   -0.0215 C   0  0  0  0  0  0  0  0  0  0  0  0
    5.9299   -0.7376    0.9417 H   0  0  0  0  0  0  0  0  0  0  0  0
    5.5611   -1.5672   -0.6083 H   0  0  0  0  0  0  0  0  0  0  0  0
    6.0439    0.1631   -0.6083 H   0  0  0  0  0  0  0  0  0  0  0  0
    4.5288    1.8450    0.3566 H   0  0  0  0  0  0  0  0  0  0  0  0
    2.1991    2.6014    0.5791 H   0  0  0  0  0  0  0  0  0  0  0  0
   -0.3409    1.1953    1.3936 H   0  0  0  0  0  0  0  0  0  0  0  0
   -0.4504    1.5057   -0.3292 H   0  0  0  0  0  0  0  0  0  0  0  0
   -2.6807    0.7560    1.0715 H   0  0  0  0  0  0  0  0  0  0  0  0
   -3.1525    1.5222   -1.0542 H   0  0  0  0  0  0  0  0  0  0  0  0
   -3.0048   -0.0603   -1.7788 H   0  0  0  0  0  0  0  0  0  0  0  0
   -5.4379    1.3049   -1.0592 H   0  0  0  0  0  0  0  0  0  0  0  0
   -5.3409   -0.3725   -1.5998 H   0  0  0  0  0  0  0  0  0  0  0  0
   -5.5134    0.7121    1.2392 H   0  0  0  0  0  0  0  0  0  0  0  0
   -0.5382   -5.2468   -0.4813 H   0  0  0  0  0  0  0  0  0  0  0  0
   -2.2926   -4.9488   -0.3548 H   0  0  0  0  0  0  0  0  0  0  0  0
    3.2505   -2.1783   -0.1928 H   0  0  0  0  0  0  0  0  0  0  0  0
  1  2  1  0
  2  3  2  0
  3  4  1  0
  4  5  2  0
  5  6  1  0
  6  7  1  0
  7  8  2  0
  8  9  1  0
  9 10  1  0
 10 11  1  0
 11 12  1  0
 12 13  1  0
 12 14  1  0
  8 15  1  0
 15 16  2  0
 16 17  1  0
 16 18  1  0
 18 19  2  0
 19 20  1  0
 20 21  2  0
 21  2  1  0
 20  5  1  0
 19  7  1  0
 14  9  1  0
  1 22  1  0
  1 23  1  0
  1 24  1  0
  3 25  1  0
  4 26  1  0
  6 27  1  0
  6 28  1  0
  9 29  1  0
 10 30  1  0
 10 31  1  0
 11 32  1  0
 11 33  1  0
 12 34  1  0
 17 35  1  0
 17 36  1  0
 21 37  1  0
M  END
>  <Original_Name>  (85) 
CHEMBL178435

>  <ROSHAMBO_ComboTanimoto>  (85) 
0.832

>  <ROSHAMBO_ShapeTanimoto>  (85) 
0.629

>  <ROSHAMBO_ColorTanimoto>  (85) 
0.202

>  <ROSHAMBO_FitTverskyCombo>  (85) 
1.226

>  <ROSHAMBO_FitTversky>  (85) 
0.852

>  <ROSHAMBO_FitColorTversky>  (85) 
0.375

>  <ROSHAMBO_RefTverskyCombo>  (85) 
1.012

>  <ROSHAMBO_RefTversky>  (85) 
0.707

>  <ROSHAMBO_RefColorTversky>  (85) 
0.305

>  <ROSHAMBO_Overlap>  (85) 
861.786

$$$$
CHEMBL17859_0_58
     RDKit          3D

 32 34  0  0  0  0  0  0  0  0999 V2000
    4.2470    1.1522    0.1910 N   0  0  0  0  0  0  0  0  0  0  0  0
    3.4248   -0.0032    0.0521 C   0  0  0  0  0  0  0  0  0  0  0  0
    2.0462    0.1471    0.1918 C   0  0  0  0  0  0  0  0  0  0  0  0
    1.2607    1.1855    0.4415 N   0  0  0  0  0  0  0  0  0  0  0  0
   -0.0255    0.7528    0.4695 C   0  0  0  0  0  0  0  0  0  0  0  0
   -0.0662   -0.5754    0.2357 N   0  0  0  0  0  0  0  0  0  0  0  0
   -1.2321   -1.4422    0.1765 C   0  0  0  0  0  0  0  0  0  0  0  0
   -2.0708   -1.0879   -1.4122 S   0  0  0  0  0  0  0  0  0  0  0  0
   -3.3519   -0.0189   -0.6609 C   0  0  0  0  0  0  0  0  0  0  0  0
   -4.6187   -0.0608   -1.4760 C   0  0  0  0  0  0  0  0  0  0  0  0
   -5.5586    0.7522   -0.8841 O   0  0  0  0  0  0  0  0  0  0  0  0
   -3.5146   -0.6963    0.6469 C   0  0  0  0  0  0  0  0  0  0  0  0
   -4.4297   -1.7538    0.4796 O   0  0  0  0  0  0  0  0  0  0  0  0
   -2.2408   -1.1279    1.2077 C   0  0  0  0  0  0  0  0  0  0  0  0
   -1.7946   -0.1877    2.1533 O   0  0  0  0  0  0  0  0  0  0  0  0
    1.2221   -0.9540    0.0626 C   0  0  0  0  0  0  0  0  0  0  0  0
    1.7690   -2.1722   -0.1997 N   0  0  0  0  0  0  0  0  0  0  0  0
    3.1016   -2.3117   -0.3337 C   0  0  0  0  0  0  0  0  0  0  0  0
    3.7979   -3.9030   -0.6748 Cl  0  0  0  0  0  0  0  0  0  0  0  0
    3.8844   -1.2251   -0.2038 N   0  0  0  0  0  0  0  0  0  0  0  0
    5.2692    1.0716    0.0930 H   0  0  0  0  0  0  0  0  0  0  0  0
    3.8193    2.0679    0.3895 H   0  0  0  0  0  0  0  0  0  0  0  0
   -0.9031    1.3895    0.6551 H   0  0  0  0  0  0  0  0  0  0  0  0
   -0.8819   -2.4765    0.3089 H   0  0  0  0  0  0  0  0  0  0  0  0
   -3.1017    1.0501   -0.5921 H   0  0  0  0  0  0  0  0  0  0  0  0
   -4.4129    0.2952   -2.4962 H   0  0  0  0  0  0  0  0  0  0  0  0
   -4.9965   -1.0928   -1.5235 H   0  0  0  0  0  0  0  0  0  0  0  0
   -5.4804    0.6846    0.1005 H   0  0  0  0  0  0  0  0  0  0  0  0
   -3.9158    0.0118    1.3869 H   0  0  0  0  0  0  0  0  0  0  0  0
   -4.7167   -2.0855    1.3671 H   0  0  0  0  0  0  0  0  0  0  0  0
   -2.4013   -2.0829    1.7295 H   0  0  0  0  0  0  0  0  0  0  0  0
   -1.9590   -0.5341    3.0660 H   0  0  0  0  0  0  0  0  0  0  0  0
  1  2  1  0
  2  3  2  0
  3  4  1  0
  4  5  2  0
  5  6  1  0
  6  7  1  0
  7  8  1  0
  8  9  1  0
  9 10  1  0
 10 11  1  0
  9 12  1  0
 12 13  1  0
 12 14  1  0
 14 15  1  0
  6 16  1  0
 16 17  2  0
 17 18  1  0
 18 19  1  0
 18 20  2  0
 20  2  1  0
 16  3  1  0
 14  7  1  0
  1 21  1  0
  1 22  1  0
  5 23  1  0
  7 24  1  0
  9 25  1  0
 10 26  1  0
 10 27  1  0
 11 28  1  0
 12 29  1  0
 13 30  1  0
 14 31  1  0
 15 32  1  0
M  END
>  <Original_Name>  (86) 
CHEMBL17859

>  <ROSHAMBO_ComboTanimoto>  (86) 
0.831

>  <ROSHAMBO_ShapeTanimoto>  (86) 
0.58

>  <ROSHAMBO_ColorTanimoto>  (86) 
0.251

>  <ROSHAMBO_FitTverskyCombo>  (86) 
1.24

>  <ROSHAMBO_FitTversky>  (86) 
0.838

>  <ROSHAMBO_FitColorTversky>  (86) 
0.402

>  <ROSHAMBO_RefTverskyCombo>  (86) 
1.054

>  <ROSHAMBO_RefTversky>  (86) 
0.653

>  <ROSHAMBO_RefColorTversky>  (86) 
0.401

>  <ROSHAMBO_Overlap>  (86) 
793.306

$$$$
CHEMBL178435_0_77
     RDKit          3D

 37 40  0  0  0  0  0  0  0  0999 V2000
    5.4258   -0.1957    0.0879 C   0  0  0  0  0  0  0  0  0  0  0  0
    3.9763    0.1911    0.1986 C   0  0  0  0  0  0  0  0  0  0  0  0
    3.5933    1.4784    0.5291 C   0  0  0  0  0  0  0  0  0  0  0  0
    2.2554    1.8180    0.6269 C   0  0  0  0  0  0  0  0  0  0  0  0
    1.2642    0.8831    0.3977 C   0  0  0  0  0  0  0  0  0  0  0  0
   -0.2198    0.9795    0.4349 C   0  0  0  0  0  0  0  0  0  0  0  0
   -0.6774   -0.3761    0.0941 C   0  0  0  0  0  0  0  0  0  0  0  0
   -1.9548   -0.8814   -0.0234 C   0  0  0  0  0  0  0  0  0  0  0  0
   -3.1299   -0.0087    0.2084 C   0  0  0  0  0  0  0  0  0  0  0  0
   -3.5167    0.6169   -1.0827 C   0  0  0  0  0  0  0  0  0  0  0  0
   -4.9887    0.4121   -1.1838 C   0  0  0  0  0  0  0  0  0  0  0  0
   -5.3467   -0.2809    0.0852 C   0  0  0  0  0  0  0  0  0  0  0  0
   -6.3775    0.9692    1.1703 Br  0  0  0  0  0  0  0  0  0  0  0  0
   -4.2103   -0.6816    0.7244 O   0  0  0  0  0  0  0  0  0  0  0  0
   -2.0846   -2.1787   -0.3522 N   0  0  0  0  0  0  0  0  0  0  0  0
   -1.0438   -2.9910   -0.5676 C   0  0  0  0  0  0  0  0  0  0  0  0
   -1.1772   -4.3599   -0.9144 N   0  0  0  0  0  0  0  0  0  0  0  0
    0.2010   -2.4966   -0.4525 N   0  0  0  0  0  0  0  0  0  0  0  0
    0.4225   -1.2117   -0.1277 C   0  0  0  0  0  0  0  0  0  0  0  0
    1.6327   -0.4156    0.0644 C   0  0  0  0  0  0  0  0  0  0  0  0
    2.9729   -0.7221   -0.0250 C   0  0  0  0  0  0  0  0  0  0  0  0
    5.8528   -0.3097    1.0952 H   0  0  0  0  0  0  0  0  0  0  0  0
    5.5106   -1.1479   -0.4563 H   0  0  0  0  0  0  0  0  0  0  0  0
    5.9738    0.5876   -0.4563 H   0  0  0  0  0  0  0  0  0  0  0  0
    4.3623    2.2422    0.7168 H   0  0  0  0  0  0  0  0  0  0  0  0
    1.9766    2.8487    0.8913 H   0  0  0  0  0  0  0  0  0  0  0  0
   -0.5671    1.2680    1.4379 H   0  0  0  0  0  0  0  0  0  0  0  0
   -0.6101    1.7421   -0.2551 H   0  0  0  0  0  0  0  0  0  0  0  0
   -2.8385    0.7459    0.9538 H   0  0  0  0  0  0  0  0  0  0  0  0
   -3.2748    1.6900   -1.0803 H   0  0  0  0  0  0  0  0  0  0  0  0
   -2.9783    0.1749   -1.9340 H   0  0  0  0  0  0  0  0  0  0  0  0
   -5.5125    1.3760   -1.2637 H   0  0  0  0  0  0  0  0  0  0  0  0
   -5.2745   -0.1653   -2.0755 H   0  0  0  0  0  0  0  0  0  0  0  0
   -5.9500   -1.1806   -0.1064 H   0  0  0  0  0  0  0  0  0  0  0  0
   -0.3376   -4.9364   -1.0682 H   0  0  0  0  0  0  0  0  0  0  0  0
   -2.1136   -4.7774   -1.0126 H   0  0  0  0  0  0  0  0  0  0  0  0
    3.2552   -1.7519   -0.2892 H   0  0  0  0  0  0  0  0  0  0  0  0
  1  2  1  0
  2  3  2  0
  3  4  1  0
  4  5  2  0
  5  6  1  0
  6  7  1  0
  7  8  2  0
  8  9  1  0
  9 10  1  0
 10 11  1  0
 11 12  1  0
 12 13  1  0
 12 14  1  0
  8 15  1  0
 15 16  2  0
 16 17  1  0
 16 18  1  0
 18 19  2  0
 19 20  1  0
 20 21  2  0
 21  2  1  0
 20  5  1  0
 19  7  1  0
 14  9  1  0
  1 22  1  0
  1 23  1  0
  1 24  1  0
  3 25  1  0
  4 26  1  0
  6 27  1  0
  6 28  1  0
  9 29  1  0
 10 30  1  0
 10 31  1  0
 11 32  1  0
 11 33  1  0
 12 34  1  0
 17 35  1  0
 17 36  1  0
 21 37  1  0
M  END
>  <Original_Name>  (87) 
CHEMBL178435

>  <ROSHAMBO_ComboTanimoto>  (87) 
0.827

>  <ROSHAMBO_ShapeTanimoto>  (87) 
0.636

>  <ROSHAMBO_ColorTanimoto>  (87) 
0.191

>  <ROSHAMBO_FitTverskyCombo>  (87) 
1.214

>  <ROSHAMBO_FitTversky>  (87) 
0.857

>  <ROSHAMBO_FitColorTversky>  (87) 
0.357

>  <ROSHAMBO_RefTverskyCombo>  (87) 
1.002

>  <ROSHAMBO_RefTversky>  (87) 
0.712

>  <ROSHAMBO_RefColorTversky>  (87) 
0.291

>  <ROSHAMBO_Overlap>  (87) 
867.623

$$$$
CHEMBL1095695_0_83
     RDKit          3D

 29 31  0  0  0  0  0  0  0  0999 V2000
   -3.2742   -0.3137   -1.7998 C   0  0  0  0  0  0  0  0  0  0  0  0
   -2.7723   -0.1408   -0.6982 C   0  0  0  0  0  0  0  0  0  0  0  0
   -2.1286    0.0689    0.7013 C   0  0  0  0  0  0  0  0  0  0  0  0
   -0.8686   -0.6265    0.6172 N   0  0  0  0  0  0  0  0  0  0  0  0
    0.3589    0.0316    0.5847 C   0  0  0  0  0  0  0  0  0  0  0  0
    0.2118    1.2576    0.8342 O   0  0  0  0  0  0  0  0  0  0  0  0
    1.5488   -0.6102    0.3394 C   0  0  0  0  0  0  0  0  0  0  0  0
    1.4797   -1.9454    0.1163 C   0  0  0  0  0  0  0  0  0  0  0  0
    0.2558   -2.6458    0.1521 N   0  0  0  0  0  0  0  0  0  0  0  0
   -0.8708   -1.9426    0.4046 C   0  0  0  0  0  0  0  0  0  0  0  0
   -2.2327   -2.6082    0.4477 C   0  0  0  0  0  0  0  0  0  0  0  0
    3.1412   -2.3707   -0.2631 S   0  0  0  0  0  0  0  0  0  0  0  0
    3.8443   -0.7295   -0.0696 C   0  0  0  0  0  0  0  0  0  0  0  0
    2.7811   -0.0256    0.2484 C   0  0  0  0  0  0  0  0  0  0  0  0
    3.2973    1.3958    0.5900 C   0  0  0  0  0  0  0  0  0  0  0  0
    4.6496    1.4356   -0.0412 C   0  0  0  0  0  0  0  0  0  0  0  0
    5.1110    0.0323   -0.1284 C   0  0  0  0  0  0  0  0  0  0  0  0
   -3.7257   -0.4692   -2.7908 H   0  0  0  0  0  0  0  0  0  0  0  0
   -1.9712    1.1389    0.9022 H   0  0  0  0  0  0  0  0  0  0  0  0
   -2.7633   -0.3052    1.5181 H   0  0  0  0  0  0  0  0  0  0  0  0
   -2.5355   -2.7562    1.4948 H   0  0  0  0  0  0  0  0  0  0  0  0
   -2.9696   -1.9687   -0.0602 H   0  0  0  0  0  0  0  0  0  0  0  0
   -2.1809   -3.5826   -0.0602 H   0  0  0  0  0  0  0  0  0  0  0  0
    2.6402    2.1666    0.1610 H   0  0  0  0  0  0  0  0  0  0  0  0
    3.3231    1.5942    1.6717 H   0  0  0  0  0  0  0  0  0  0  0  0
    4.5876    1.8789   -1.0461 H   0  0  0  0  0  0  0  0  0  0  0  0
    5.3471    2.0490    0.5481 H   0  0  0  0  0  0  0  0  0  0  0  0
    5.6419   -0.1529   -1.0738 H   0  0  0  0  0  0  0  0  0  0  0  0
    5.8238   -0.2433    0.6628 H   0  0  0  0  0  0  0  0  0  0  0  0
  1  2  3  0
  2  3  1  0
  3  4  1  0
  4  5  1  0
  5  6  2  0
  5  7  1  0
  7  8  2  0
  8  9  1  0
  9 10  2  0
 10 11  1  0
  8 12  1  0
 12 13  1  0
 13 14  2  0
 14 15  1  0
 15 16  1  0
 16 17  1  0
 10  4  1  0
 17 13  1  0
 14  7  1  0
  1 18  1  0
  3 19  1  0
  3 20  1  0
 11 21  1  0
 11 22  1  0
 11 23  1  0
 15 24  1  0
 15 25  1  0
 16 26  1  0
 16 27  1  0
 17 28  1  0
 17 29  1  0
M  END
>  <Original_Name>  (88) 
CHEMBL1095695

>  <ROSHAMBO_ComboTanimoto>  (88) 
0.826

>  <ROSHAMBO_ShapeTanimoto>  (88) 
0.549

>  <ROSHAMBO_ColorTanimoto>  (88) 
0.278

>  <ROSHAMBO_FitTverskyCombo>  (88) 
1.488

>  <ROSHAMBO_FitTversky>  (88) 
0.879

>  <ROSHAMBO_FitColorTversky>  (88) 
0.609

>  <ROSHAMBO_RefTverskyCombo>  (88) 
0.932

>  <ROSHAMBO_RefTversky>  (88) 
0.594

>  <ROSHAMBO_RefColorTversky>  (88) 
0.338

>  <ROSHAMBO_Overlap>  (88) 
717.784

$$$$
CHEMBL1079801_0_19
     RDKit          3D

 30 32  0  0  0  0  0  0  0  0999 V2000
    2.6941   -3.6681    0.4851 N   0  0  0  0  0  0  0  0  0  0  0  0
    1.7422   -3.0457    0.3454 C   0  0  0  0  0  0  0  0  0  0  0  0
    0.5485   -2.2675    0.1957 C   0  0  0  0  0  0  0  0  0  0  0  0
   -0.6895   -2.8299    0.1214 C   0  0  0  0  0  0  0  0  0  0  0  0
   -1.7931   -2.0010   -0.0230 C   0  0  0  0  0  0  0  0  0  0  0  0
   -1.6596   -0.6381   -0.0916 C   0  0  0  0  0  0  0  0  0  0  0  0
   -2.7008    0.2993   -0.2376 N   0  0  0  0  0  0  0  0  0  0  0  0
   -4.0559   -0.0228   -0.3388 C   0  0  0  0  0  0  0  0  0  0  0  0
   -4.4866   -1.1942   -0.3095 O   0  0  0  0  0  0  0  0  0  0  0  0
   -5.0369    1.1194   -0.4911 C   0  0  0  0  0  0  0  0  0  0  0  0
   -6.3725    0.8422    0.1312 C   0  0  0  0  0  0  0  0  0  0  0  0
   -6.2724    0.8395   -1.3451 C   0  0  0  0  0  0  0  0  0  0  0  0
   -0.4008   -0.1598   -0.0106 N   0  0  0  0  0  0  0  0  0  0  0  0
    0.7095   -0.8786    0.1279 C   0  0  0  0  0  0  0  0  0  0  0  0
    2.0263   -0.2850    0.2067 C   0  0  0  0  0  0  0  0  0  0  0  0
    2.2892    1.0597    0.1516 C   0  0  0  0  0  0  0  0  0  0  0  0
    3.6797    1.1664    0.2648 C   0  0  0  0  0  0  0  0  0  0  0  0
    4.1644   -0.1229    0.3807 C   0  0  0  0  0  0  0  0  0  0  0  0
    3.1389   -0.9493    0.3404 O   0  0  0  0  0  0  0  0  0  0  0  0
   -0.8125   -3.9217    0.1750 H   0  0  0  0  0  0  0  0  0  0  0  0
   -2.7968   -2.4470   -0.0838 H   0  0  0  0  0  0  0  0  0  0  0  0
   -2.4437    1.2961   -0.2722 H   0  0  0  0  0  0  0  0  0  0  0  0
   -4.2853    1.9220   -0.4602 H   0  0  0  0  0  0  0  0  0  0  0  0
   -6.5381   -0.1034    0.6682 H   0  0  0  0  0  0  0  0  0  0  0  0
   -7.0064    1.3732    0.8567 H   0  0  0  0  0  0  0  0  0  0  0  0
   -6.3550   -0.1061   -1.9008 H   0  0  0  0  0  0  0  0  0  0  0  0
   -6.7899    1.3638   -2.1620 H   0  0  0  0  0  0  0  0  0  0  0  0
    1.5629    1.8785    0.0420 H   0  0  0  0  0  0  0  0  0  0  0  0
    4.2709    2.0940    0.2620 H   0  0  0  0  0  0  0  0  0  0  0  0
    5.2212   -0.4089    0.4879 H   0  0  0  0  0  0  0  0  0  0  0  0
  1  2  3  0
  2  3  1  0
  3  4  2  0
  4  5  1  0
  5  6  2  0
  6  7  1  0
  7  8  1  0
  8  9  2  0
  8 10  1  0
 10 11  1  0
 11 12  1  0
  6 13  1  0
 13 14  2  0
 14 15  1  0
 15 16  2  0
 16 17  1  0
 17 18  2  0
 18 19  1  0
 14  3  1  0
 19 15  1  0
 12 10  1  0
  4 20  1  0
  5 21  1  0
  7 22  1  0
 10 23  1  0
 11 24  1  0
 11 25  1  0
 12 26  1  0
 12 27  1  0
 16 28  1  0
 17 29  1  0
 18 30  1  0
M  END
>  <Original_Name>  (89) 
CHEMBL1079801

>  <ROSHAMBO_ComboTanimoto>  (89) 
0.821

>  <ROSHAMBO_ShapeTanimoto>  (89) 
0.607

>  <ROSHAMBO_ColorTanimoto>  (89) 
0.214

>  <ROSHAMBO_FitTverskyCombo>  (89) 
1.403

>  <ROSHAMBO_FitTversky>  (89) 
0.876

>  <ROSHAMBO_FitColorTversky>  (89) 
0.527

>  <ROSHAMBO_RefTverskyCombo>  (89) 
0.929

>  <ROSHAMBO_RefTversky>  (89) 
0.664

>  <ROSHAMBO_RefColorTversky>  (89) 
0.266

>  <ROSHAMBO_Overlap>  (89) 
805.835

$$$$
CHEMBL166429_0_87
     RDKit          3D

 31 32  0  0  0  0  0  0  0  0999 V2000
   -2.6482   -1.3392    1.5111 S   0  0  0  0  0  0  0  0  0  0  0  0
   -2.3928   -1.4396   -0.0939 C   0  0  0  0  0  0  0  0  0  0  0  0
   -3.3170   -0.8691   -1.0869 C   0  0  0  0  0  0  0  0  0  0  0  0
   -4.4861   -0.2043   -0.4728 C   0  0  0  0  0  0  0  0  0  0  0  0
   -5.6215   -0.9491   -0.2286 C   0  0  0  0  0  0  0  0  0  0  0  0
   -6.7620   -0.3904    0.3477 C   0  0  0  0  0  0  0  0  0  0  0  0
   -6.7786    0.9463    0.6926 C   0  0  0  0  0  0  0  0  0  0  0  0
   -5.6445    1.6912    0.4489 C   0  0  0  0  0  0  0  0  0  0  0  0
   -4.5156    1.1275   -0.1242 C   0  0  0  0  0  0  0  0  0  0  0  0
   -1.2314   -2.1044   -0.5612 N   0  0  0  0  0  0  0  0  0  0  0  0
   -0.3435   -2.6499    0.3076 N   0  0  0  0  0  0  0  0  0  0  0  0
    0.7665   -2.2717    0.7558 C   0  0  0  0  0  0  0  0  0  0  0  0
    1.4991   -1.0549    0.4696 C   0  0  0  0  0  0  0  0  0  0  0  0
    2.7210   -0.8033    1.0622 C   0  0  0  0  0  0  0  0  0  0  0  0
    3.4377    0.3486    0.8052 C   0  0  0  0  0  0  0  0  0  0  0  0
    2.9009    1.2644   -0.0729 C   0  0  0  0  0  0  0  0  0  0  0  0
    1.7227    1.0259   -0.6467 N   0  0  0  0  0  0  0  0  0  0  0  0
    1.0175   -0.1147   -0.3896 C   0  0  0  0  0  0  0  0  0  0  0  0
   -2.7703   -0.1297   -1.6904 H   0  0  0  0  0  0  0  0  0  0  0  0
   -3.6955   -1.7004   -1.6998 H   0  0  0  0  0  0  0  0  0  0  0  0
   -5.6274   -2.0159   -0.4966 H   0  0  0  0  0  0  0  0  0  0  0  0
   -7.6492   -1.0153    0.5276 H   0  0  0  0  0  0  0  0  0  0  0  0
   -7.6696    1.4031    1.1480 H   0  0  0  0  0  0  0  0  0  0  0  0
   -5.6354    2.7583    0.7157 H   0  0  0  0  0  0  0  0  0  0  0  0
   -3.6293    1.7538   -0.3035 H   0  0  0  0  0  0  0  0  0  0  0  0
   -1.0591   -2.1743   -1.5743 H   0  0  0  0  0  0  0  0  0  0  0  0
    1.2503   -2.9599    1.4646 H   0  0  0  0  0  0  0  0  0  0  0  0
    3.1365   -1.5442    1.7612 H   0  0  0  0  0  0  0  0  0  0  0  0
    4.4094    0.5298    1.2878 H   0  0  0  0  0  0  0  0  0  0  0  0
    3.4453    2.1928   -0.3002 H   0  0  0  0  0  0  0  0  0  0  0  0
    0.0477   -0.2762   -0.8829 H   0  0  0  0  0  0  0  0  0  0  0  0
  1  2  2  0
  2  3  1  0
  3  4  1  0
  4  5  2  0
  5  6  1  0
  6  7  2  0
  7  8  1  0
  8  9  2  0
  2 10  1  0
 10 11  1  0
 11 12  2  3
 12 13  1  0
 13 14  2  0
 14 15  1  0
 15 16  2  0
 16 17  1  0
 17 18  2  0
  9  4  1  0
 18 13  1  0
  3 19  1  0
  3 20  1  0
  5 21  1  0
  6 22  1  0
  7 23  1  0
  8 24  1  0
  9 25  1  0
 10 26  1  0
 12 27  1  0
 14 28  1  0
 15 29  1  0
 16 30  1  0
 18 31  1  0
M  END
>  <Original_Name>  (90) 
CHEMBL166429

>  <ROSHAMBO_ComboTanimoto>  (90) 
0.821

>  <ROSHAMBO_ShapeTanimoto>  (90) 
0.56

>  <ROSHAMBO_ColorTanimoto>  (90) 
0.26

>  <ROSHAMBO_FitTverskyCombo>  (90) 
1.544

>  <ROSHAMBO_FitTversky>  (90) 
0.879

>  <ROSHAMBO_FitColorTversky>  (90) 
0.665

>  <ROSHAMBO_RefTverskyCombo>  (90) 
0.907

>  <ROSHAMBO_RefTversky>  (90) 
0.607

>  <ROSHAMBO_RefColorTversky>  (90) 
0.3

>  <ROSHAMBO_Overlap>  (90) 
734.537

$$$$
CHEMBL401321_0_61
     RDKit          3D

 31 33  0  0  0  0  0  0  0  0999 V2000
    0.4278   -4.8182   -0.6332 C   0  0  0  0  0  0  0  0  0  0  0  0
    0.5815   -3.3529   -0.4019 C   0  0  0  0  0  0  0  0  0  0  0  0
   -0.4300   -2.6527   -0.1891 O   0  0  0  0  0  0  0  0  0  0  0  0
    1.8656   -2.7714   -0.4252 N   0  0  0  0  0  0  0  0  0  0  0  0
    2.1672   -1.4010   -0.2237 C   0  0  0  0  0  0  0  0  0  0  0  0
    1.2830   -0.3989    0.0277 C   0  0  0  0  0  0  0  0  0  0  0  0
    1.7230    0.9226    0.2080 C   0  0  0  0  0  0  0  0  0  0  0  0
    0.7782    1.9554    0.4702 N   0  0  0  0  0  0  0  0  0  0  0  0
    0.7104    3.0773   -0.3029 C   0  0  0  0  0  0  0  0  0  0  0  0
   -0.2925    3.8741    0.2018 C   0  0  0  0  0  0  0  0  0  0  0  0
   -0.8257    3.2174    1.2864 C   0  0  0  0  0  0  0  0  0  0  0  0
   -0.1376    2.0452    1.4130 N   0  0  0  0  0  0  0  0  0  0  0  0
    3.0533    1.1620    0.1228 N   0  0  0  0  0  0  0  0  0  0  0  0
    3.9361    0.1914   -0.1231 C   0  0  0  0  0  0  0  0  0  0  0  0
    5.3640    0.4708   -0.2107 C   0  0  0  0  0  0  0  0  0  0  0  0
    6.1990    0.2866   -1.3136 C   0  0  0  0  0  0  0  0  0  0  0  0
    7.4726    0.6772   -0.9636 C   0  0  0  0  0  0  0  0  0  0  0  0
    7.3713    1.0898    0.3515 C   0  0  0  0  0  0  0  0  0  0  0  0
    6.1458    0.9490    0.7257 O   0  0  0  0  0  0  0  0  0  0  0  0
    3.4743   -1.0497   -0.2879 N   0  0  0  0  0  0  0  0  0  0  0  0
    0.3732   -5.3385    0.3344 H   0  0  0  0  0  0  0  0  0  0  0  0
   -0.4948   -5.0048   -1.2024 H   0  0  0  0  0  0  0  0  0  0  0  0
    1.2917   -5.1921   -1.2024 H   0  0  0  0  0  0  0  0  0  0  0  0
    2.6598   -3.4020   -0.6058 H   0  0  0  0  0  0  0  0  0  0  0  0
    0.2087   -0.6265    0.0907 H   0  0  0  0  0  0  0  0  0  0  0  0
    1.3435    3.3046   -1.1732 H   0  0  0  0  0  0  0  0  0  0  0  0
   -0.6083    4.8526   -0.1891 H   0  0  0  0  0  0  0  0  0  0  0  0
   -1.6474    3.5688    1.9277 H   0  0  0  0  0  0  0  0  0  0  0  0
    5.8923   -0.1039   -2.2952 H   0  0  0  0  0  0  0  0  0  0  0  0
    8.3742    0.6637   -1.5936 H   0  0  0  0  0  0  0  0  0  0  0  0
    8.1948    1.4727    0.9721 H   0  0  0  0  0  0  0  0  0  0  0  0
  1  2  1  0
  2  3  2  0
  2  4  1  0
  4  5  1  0
  5  6  2  0
  6  7  1  0
  7  8  1  0
  8  9  1  0
  9 10  2  0
 10 11  1  0
 11 12  2  0
  7 13  2  0
 13 14  1  0
 14 15  1  0
 15 16  2  0
 16 17  1  0
 17 18  2  0
 18 19  1  0
 14 20  2  0
 20  5  1  0
 12  8  1  0
 19 15  1  0
  1 21  1  0
  1 22  1  0
  1 23  1  0
  4 24  1  0
  6 25  1  0
  9 26  1  0
 10 27  1  0
 11 28  1  0
 16 29  1  0
 17 30  1  0
 18 31  1  0
M  END
>  <Original_Name>  (91) 
CHEMBL401321

>  <ROSHAMBO_ComboTanimoto>  (91) 
0.818

>  <ROSHAMBO_ShapeTanimoto>  (91) 
0.464

>  <ROSHAMBO_ColorTanimoto>  (91) 
0.355

>  <ROSHAMBO_FitTverskyCombo>  (91) 
1.375

>  <ROSHAMBO_FitTversky>  (91) 
0.71

>  <ROSHAMBO_FitColorTversky>  (91) 
0.664

>  <ROSHAMBO_RefTverskyCombo>  (91) 
1.004

>  <ROSHAMBO_RefTversky>  (91) 
0.572

>  <ROSHAMBO_RefColorTversky>  (91) 
0.432

>  <ROSHAMBO_Overlap>  (91) 
695.856

$$$$
CHEMBL17859_0_66
     RDKit          3D

 32 34  0  0  0  0  0  0  0  0999 V2000
    4.0407    2.2673   -0.1288 N   0  0  0  0  0  0  0  0  0  0  0  0
    3.3006    1.0750    0.0049 C   0  0  0  0  0  0  0  0  0  0  0  0
    1.9618    1.1451    0.3209 C   0  0  0  0  0  0  0  0  0  0  0  0
    1.1362    2.1801    0.5489 N   0  0  0  0  0  0  0  0  0  0  0  0
   -0.1017    1.6865    0.8224 C   0  0  0  0  0  0  0  0  0  0  0  0
   -0.0294    0.3506    0.7610 N   0  0  0  0  0  0  0  0  0  0  0  0
   -1.0768   -0.6110    0.9743 C   0  0  0  0  0  0  0  0  0  0  0  0
   -2.7200    0.1486    0.9568 S   0  0  0  0  0  0  0  0  0  0  0  0
   -3.5135   -1.1380   -0.0521 C   0  0  0  0  0  0  0  0  0  0  0  0
   -4.5763   -0.5578   -0.9547 C   0  0  0  0  0  0  0  0  0  0  0  0
   -5.5563    0.0627   -0.1668 O   0  0  0  0  0  0  0  0  0  0  0  0
   -2.3620   -1.6795   -0.8148 C   0  0  0  0  0  0  0  0  0  0  0  0
   -2.1987   -0.9687   -2.0170 O   0  0  0  0  0  0  0  0  0  0  0  0
   -1.1253   -1.6696   -0.0432 C   0  0  0  0  0  0  0  0  0  0  0  0
   -0.8407   -2.9090    0.5761 O   0  0  0  0  0  0  0  0  0  0  0  0
    1.2321   -0.0009    0.4537 C   0  0  0  0  0  0  0  0  0  0  0  0
    1.8747   -1.1916    0.2634 N   0  0  0  0  0  0  0  0  0  0  0  0
    3.1683   -1.2578   -0.0419 C   0  0  0  0  0  0  0  0  0  0  0  0
    3.9507   -2.8024   -0.2767 Cl  0  0  0  0  0  0  0  0  0  0  0  0
    3.8934   -0.1379   -0.1745 N   0  0  0  0  0  0  0  0  0  0  0  0
    5.0425    2.2278   -0.3648 H   0  0  0  0  0  0  0  0  0  0  0  0
    3.5796    3.1779    0.0096 H   0  0  0  0  0  0  0  0  0  0  0  0
   -1.0001    2.2780    1.0527 H   0  0  0  0  0  0  0  0  0  0  0  0
   -0.8313   -1.0366    1.9585 H   0  0  0  0  0  0  0  0  0  0  0  0
   -4.0480   -1.9015    0.5322 H   0  0  0  0  0  0  0  0  0  0  0  0
   -4.1225    0.1829   -1.6297 H   0  0  0  0  0  0  0  0  0  0  0  0
   -5.0336   -1.3595   -1.5531 H   0  0  0  0  0  0  0  0  0  0  0  0
   -5.3438   -0.0718    0.7907 H   0  0  0  0  0  0  0  0  0  0  0  0
   -2.5879   -2.7321   -1.0409 H   0  0  0  0  0  0  0  0  0  0  0  0
   -1.9817   -0.0241   -1.8150 H   0  0  0  0  0  0  0  0  0  0  0  0
   -0.3528   -1.4652   -0.7992 H   0  0  0  0  0  0  0  0  0  0  0  0
   -0.8658   -2.7999    1.5597 H   0  0  0  0  0  0  0  0  0  0  0  0
  1  2  1  0
  2  3  2  0
  3  4  1  0
  4  5  2  0
  5  6  1  0
  6  7  1  0
  7  8  1  0
  8  9  1  0
  9 10  1  0
 10 11  1  0
  9 12  1  0
 12 13  1  0
 12 14  1  0
 14 15  1  0
  6 16  1  0
 16 17  2  0
 17 18  1  0
 18 19  1  0
 18 20  2  0
 20  2  1  0
 16  3  1  0
 14  7  1  0
  1 21  1  0
  1 22  1  0
  5 23  1  0
  7 24  1  0
  9 25  1  0
 10 26  1  0
 10 27  1  0
 11 28  1  0
 12 29  1  0
 13 30  1  0
 14 31  1  0
 15 32  1  0
M  END
>  <Original_Name>  (92) 
CHEMBL17859

>  <ROSHAMBO_ComboTanimoto>  (92) 
0.817

>  <ROSHAMBO_ShapeTanimoto>  (92) 
0.58

>  <ROSHAMBO_ColorTanimoto>  (92) 
0.237

>  <ROSHAMBO_FitTverskyCombo>  (92) 
1.224

>  <ROSHAMBO_FitTversky>  (92) 
0.839

>  <ROSHAMBO_FitColorTversky>  (92) 
0.385

>  <ROSHAMBO_RefTverskyCombo>  (92) 
1.035

>  <ROSHAMBO_RefTversky>  (92) 
0.652

>  <ROSHAMBO_RefColorTversky>  (92) 
0.383

>  <ROSHAMBO_Overlap>  (92) 
792.552

$$$$
CHEMBL165760_0_81
     RDKit          3D

 41 43  0  0  0  0  0  0  0  0999 V2000
    5.4595    3.0261    0.5667 C   0  0  0  0  0  0  0  0  0  0  0  0
    5.7977    1.7981   -0.0046 O   0  0  0  0  0  0  0  0  0  0  0  0
    4.9529    0.7322   -0.1786 C   0  0  0  0  0  0  0  0  0  0  0  0
    5.4204   -0.4185   -0.7566 C   0  0  0  0  0  0  0  0  0  0  0  0
    4.5674   -1.4942   -0.9321 C   0  0  0  0  0  0  0  0  0  0  0  0
    3.2373   -1.3895   -0.5153 C   0  0  0  0  0  0  0  0  0  0  0  0
    2.7619   -0.2398    0.0645 C   0  0  0  0  0  0  0  0  0  0  0  0
    1.3845   -0.1640    0.4834 C   0  0  0  0  0  0  0  0  0  0  0  0
    0.8396    0.9322    1.0623 N   0  0  0  0  0  0  0  0  0  0  0  0
   -0.4122    0.6928    1.3235 N   0  0  0  0  0  0  0  0  0  0  0  0
   -0.7018   -0.5573    0.9210 C   0  0  0  0  0  0  0  0  0  0  0  0
   -2.0521   -1.1515    1.0727 C   0  0  0  0  0  0  0  0  0  0  0  0
   -2.9265   -0.8975   -0.0906 C   0  0  0  0  0  0  0  0  0  0  0  0
   -2.9972   -1.7444   -1.1781 C   0  0  0  0  0  0  0  0  0  0  0  0
   -3.8325   -1.4741   -2.2575 C   0  0  0  0  0  0  0  0  0  0  0  0
   -4.6246   -0.3455   -2.2821 C   0  0  0  0  0  0  0  0  0  0  0  0
   -5.5196   -0.0601   -3.4433 C   0  0  0  0  0  0  0  0  0  0  0  0
   -4.5544    0.5011   -1.1956 C   0  0  0  0  0  0  0  0  0  0  0  0
   -5.4152    1.7218   -1.2288 C   0  0  0  0  0  0  0  0  0  0  0  0
   -3.7232    0.2286   -0.1256 C   0  0  0  0  0  0  0  0  0  0  0  0
    0.4107   -1.0747    0.4058 N   0  0  0  0  0  0  0  0  0  0  0  0
    3.6393    0.8051    0.2211 C   0  0  0  0  0  0  0  0  0  0  0  0
    5.4834    2.9394    1.6630 H   0  0  0  0  0  0  0  0  0  0  0  0
    6.1803    3.7917    0.2436 H   0  0  0  0  0  0  0  0  0  0  0  0
    4.4485    3.3148    0.2436 H   0  0  0  0  0  0  0  0  0  0  0  0
    6.4695   -0.4872   -1.0799 H   0  0  0  0  0  0  0  0  0  0  0  0
    4.9327   -2.4227   -1.3951 H   0  0  0  0  0  0  0  0  0  0  0  0
    2.5590   -2.2443   -0.6546 H   0  0  0  0  0  0  0  0  0  0  0  0
   -1.9448   -2.2388    1.2002 H   0  0  0  0  0  0  0  0  0  0  0  0
   -2.5231   -0.6809    1.9483 H   0  0  0  0  0  0  0  0  0  0  0  0
   -2.3788   -2.6540   -1.1918 H   0  0  0  0  0  0  0  0  0  0  0  0
   -3.8615   -2.1730   -3.1064 H   0  0  0  0  0  0  0  0  0  0  0  0
   -6.5075    0.2549   -3.0762 H   0  0  0  0  0  0  0  0  0  0  0  0
   -5.0823    0.7431   -4.0545 H   0  0  0  0  0  0  0  0  0  0  0  0
   -5.6280   -0.9683   -4.0545 H   0  0  0  0  0  0  0  0  0  0  0  0
   -5.6398    2.0402   -0.2001 H   0  0  0  0  0  0  0  0  0  0  0  0
   -4.8859    2.5296   -1.7554 H   0  0  0  0  0  0  0  0  0  0  0  0
   -6.3538    1.4944   -1.7554 H   0  0  0  0  0  0  0  0  0  0  0  0
   -3.6960    0.9292    0.7221 H   0  0  0  0  0  0  0  0  0  0  0  0
    0.5053   -2.0218    0.0121 H   0  0  0  0  0  0  0  0  0  0  0  0
    3.2776    1.7353    0.6837 H   0  0  0  0  0  0  0  0  0  0  0  0
  1  2  1  0
  2  3  1  0
  3  4  2  0
  4  5  1  0
  5  6  2  0
  6  7  1  0
  7  8  1  0
  8  9  2  0
  9 10  1  0
 10 11  2  0
 11 12  1  0
 12 13  1  0
 13 14  2  0
 14 15  1  0
 15 16  2  0
 16 17  1  0
 16 18  1  0
 18 19  1  0
 18 20  2  0
 11 21  1  0
  7 22  2  0
 22  3  1  0
 21  8  1  0
 20 13  1  0
  1 23  1  0
  1 24  1  0
  1 25  1  0
  4 26  1  0
  5 27  1  0
  6 28  1  0
 12 29  1  0
 12 30  1  0
 14 31  1  0
 15 32  1  0
 17 33  1  0
 17 34  1  0
 17 35  1  0
 19 36  1  0
 19 37  1  0
 19 38  1  0
 20 39  1  0
 21 40  1  0
 22 41  1  0
M  END
>  <Original_Name>  (93) 
CHEMBL165760

>  <ROSHAMBO_ComboTanimoto>  (93) 
0.816

>  <ROSHAMBO_ShapeTanimoto>  (93) 
0.578

>  <ROSHAMBO_ColorTanimoto>  (93) 
0.238

>  <ROSHAMBO_FitTverskyCombo>  (93) 
1.315

>  <ROSHAMBO_FitTversky>  (93) 
0.793

>  <ROSHAMBO_FitColorTversky>  (93) 
0.522

>  <ROSHAMBO_RefTverskyCombo>  (93) 
0.985

>  <ROSHAMBO_RefTversky>  (93) 
0.681

>  <ROSHAMBO_RefColorTversky>  (93) 
0.304

>  <ROSHAMBO_Overlap>  (93) 
830.826

$$$$
CHEMBL1095999_0_5
     RDKit          3D

 29 32  0  0  0  0  0  0  0  0999 V2000
   -1.1035   -4.8105   -0.7669 N   0  0  0  0  0  0  0  0  0  0  0  0
   -0.9111   -3.3997   -0.5015 C   0  0  0  0  0  0  0  0  0  0  0  0
   -1.9679   -2.5955   -0.3751 N   0  0  0  0  0  0  0  0  0  0  0  0
   -1.8831   -1.2461   -0.1241 C   0  0  0  0  0  0  0  0  0  0  0  0
   -3.1018   -0.4657   -0.1283 C   0  0  0  0  0  0  0  0  0  0  0  0
   -3.4444    0.8207   -0.3747 C   0  0  0  0  0  0  0  0  0  0  0  0
   -4.8368    0.9806   -0.2203 C   0  0  0  0  0  0  0  0  0  0  0  0
   -5.2603   -0.2748    0.1217 C   0  0  0  0  0  0  0  0  0  0  0  0
   -4.2714   -1.0877    0.1710 O   0  0  0  0  0  0  0  0  0  0  0  0
   -0.6143   -0.7490   -0.0016 C   0  0  0  0  0  0  0  0  0  0  0  0
   -0.1005    0.5539    0.2958 C   0  0  0  0  0  0  0  0  0  0  0  0
   -0.7406    1.6091    0.5020 O   0  0  0  0  0  0  0  0  0  0  0  0
    1.3746    0.4384    0.3257 C   0  0  0  0  0  0  0  0  0  0  0  0
    2.3443    1.3742    0.5587 C   0  0  0  0  0  0  0  0  0  0  0  0
    3.6629    1.0218    0.5326 C   0  0  0  0  0  0  0  0  0  0  0  0
    4.0679   -0.2881    0.2709 C   0  0  0  0  0  0  0  0  0  0  0  0
    3.0771   -1.2180    0.0383 C   0  0  0  0  0  0  0  0  0  0  0  0
    1.7391   -0.8511    0.0668 C   0  0  0  0  0  0  0  0  0  0  0  0
    0.5009   -1.5918   -0.1345 C   0  0  0  0  0  0  0  0  0  0  0  0
    0.3231   -2.8991   -0.3824 N   0  0  0  0  0  0  0  0  0  0  0  0
   -0.2880   -5.4320   -0.8646 H   0  0  0  0  0  0  0  0  0  0  0  0
   -2.0558   -5.1922   -0.8579 H   0  0  0  0  0  0  0  0  0  0  0  0
   -2.7424    1.6205   -0.6534 H   0  0  0  0  0  0  0  0  0  0  0  0
   -5.4374    1.8937   -0.3447 H   0  0  0  0  0  0  0  0  0  0  0  0
   -6.3060   -0.5484    0.3261 H   0  0  0  0  0  0  0  0  0  0  0  0
    2.0603    2.4160    0.7683 H   0  0  0  0  0  0  0  0  0  0  0  0
    4.4264    1.7904    0.7228 H   0  0  0  0  0  0  0  0  0  0  0  0
    5.1319   -0.5664    0.2511 H   0  0  0  0  0  0  0  0  0  0  0  0
    3.3501   -2.2626   -0.1722 H   0  0  0  0  0  0  0  0  0  0  0  0
  1  2  1  0
  2  3  2  0
  3  4  1  0
  4  5  1  0
  5  6  2  0
  6  7  1  0
  7  8  2  0
  8  9  1  0
  4 10  2  0
 10 11  1  0
 11 12  2  0
 11 13  1  0
 13 14  2  0
 14 15  1  0
 15 16  2  0
 16 17  1  0
 17 18  2  0
 18 19  1  0
 19 20  2  0
 20  2  1  0
  9  5  1  0
 19 10  1  0
 18 13  1  0
  1 21  1  0
  1 22  1  0
  6 23  1  0
  7 24  1  0
  8 25  1  0
 14 26  1  0
 15 27  1  0
 16 28  1  0
 17 29  1  0
M  END
>  <Original_Name>  (94) 
CHEMBL1095999

>  <ROSHAMBO_ComboTanimoto>  (94) 
0.811

>  <ROSHAMBO_ShapeTanimoto>  (94) 
0.578

>  <ROSHAMBO_ColorTanimoto>  (94) 
0.233

>  <ROSHAMBO_FitTverskyCombo>  (94) 
1.231

>  <ROSHAMBO_FitTversky>  (94) 
0.81

>  <ROSHAMBO_FitColorTversky>  (94) 
0.421

>  <ROSHAMBO_RefTverskyCombo>  (94) 
1.012

>  <ROSHAMBO_RefTversky>  (94) 
0.668

>  <ROSHAMBO_RefColorTversky>  (94) 
0.343

>  <ROSHAMBO_Overlap>  (94) 
814.663

$$$$
CHEMBL17859_0_86
     RDKit          3D

 32 34  0  0  0  0  0  0  0  0999 V2000
    4.1010   -1.6416   -0.3614 N   0  0  0  0  0  0  0  0  0  0  0  0
    3.0302   -0.7351   -0.1929 C   0  0  0  0  0  0  0  0  0  0  0  0
    1.7511   -1.2457   -0.1227 C   0  0  0  0  0  0  0  0  0  0  0  0
    1.2828   -2.5061   -0.1853 N   0  0  0  0  0  0  0  0  0  0  0  0
   -0.0768   -2.4674   -0.0628 C   0  0  0  0  0  0  0  0  0  0  0  0
   -0.4685   -1.1829    0.0773 N   0  0  0  0  0  0  0  0  0  0  0  0
   -1.7675   -0.6401    0.2359 C   0  0  0  0  0  0  0  0  0  0  0  0
   -2.9529   -1.8634    0.9308 S   0  0  0  0  0  0  0  0  0  0  0  0
   -4.4147   -1.3120   -0.0376 C   0  0  0  0  0  0  0  0  0  0  0  0
   -5.5864   -1.0686    0.8815 C   0  0  0  0  0  0  0  0  0  0  0  0
   -5.3422   -0.1056    1.8285 O   0  0  0  0  0  0  0  0  0  0  0  0
   -3.8666   -0.0216   -0.6167 C   0  0  0  0  0  0  0  0  0  0  0  0
   -4.6542    0.4539   -1.6620 O   0  0  0  0  0  0  0  0  0  0  0  0
   -2.4812   -0.4004   -1.1028 C   0  0  0  0  0  0  0  0  0  0  0  0
   -2.6292   -1.6216   -1.7765 O   0  0  0  0  0  0  0  0  0  0  0  0
    0.6544   -0.4196    0.0416 C   0  0  0  0  0  0  0  0  0  0  0  0
    0.9085    0.8985    0.1277 N   0  0  0  0  0  0  0  0  0  0  0  0
    2.1571    1.4000    0.0595 C   0  0  0  0  0  0  0  0  0  0  0  0
    2.4712    3.1349    0.1747 Cl  0  0  0  0  0  0  0  0  0  0  0  0
    3.2118    0.5928   -0.0995 N   0  0  0  0  0  0  0  0  0  0  0  0
    5.0681   -1.2915   -0.4175 H   0  0  0  0  0  0  0  0  0  0  0  0
    3.9145   -2.6523   -0.4282 H   0  0  0  0  0  0  0  0  0  0  0  0
   -0.7448   -3.3413   -0.0762 H   0  0  0  0  0  0  0  0  0  0  0  0
   -1.5745    0.2557    0.8444 H   0  0  0  0  0  0  0  0  0  0  0  0
   -4.7932   -2.0210   -0.7886 H   0  0  0  0  0  0  0  0  0  0  0  0
   -6.4466   -0.7508    0.2741 H   0  0  0  0  0  0  0  0  0  0  0  0
   -5.7820   -2.0096    1.4165 H   0  0  0  0  0  0  0  0  0  0  0  0
   -5.4418   -0.4983    2.7318 H   0  0  0  0  0  0  0  0  0  0  0  0
   -3.8524    0.7926    0.1229 H   0  0  0  0  0  0  0  0  0  0  0  0
   -5.4407    0.9287   -1.2931 H   0  0  0  0  0  0  0  0  0  0  0  0
   -1.9689    0.3174   -1.7603 H   0  0  0  0  0  0  0  0  0  0  0  0
   -2.7180   -2.3540   -1.1164 H   0  0  0  0  0  0  0  0  0  0  0  0
  1  2  1  0
  2  3  2  0
  3  4  1  0
  4  5  2  0
  5  6  1  0
  6  7  1  0
  7  8  1  0
  8  9  1  0
  9 10  1  0
 10 11  1  0
  9 12  1  0
 12 13  1  0
 12 14  1  0
 14 15  1  0
  6 16  1  0
 16 17  2  0
 17 18  1  0
 18 19  1  0
 18 20  2  0
 20  2  1  0
 16  3  1  0
 14  7  1  0
  1 21  1  0
  1 22  1  0
  5 23  1  0
  7 24  1  0
  9 25  1  0
 10 26  1  0
 10 27  1  0
 11 28  1  0
 12 29  1  0
 13 30  1  0
 14 31  1  0
 15 32  1  0
M  END
>  <Original_Name>  (95) 
CHEMBL17859

>  <ROSHAMBO_ComboTanimoto>  (95) 
0.809

>  <ROSHAMBO_ShapeTanimoto>  (95) 
0.566

>  <ROSHAMBO_ColorTanimoto>  (95) 
0.243

>  <ROSHAMBO_FitTverskyCombo>  (95) 
1.219

>  <ROSHAMBO_FitTversky>  (95) 
0.827

>  <ROSHAMBO_FitColorTversky>  (95) 
0.392

>  <ROSHAMBO_RefTverskyCombo>  (95) 
1.032

>  <ROSHAMBO_RefTversky>  (95) 
0.642

>  <ROSHAMBO_RefColorTversky>  (95) 
0.39

>  <ROSHAMBO_Overlap>  (95) 
780.362

$$$$
CHEMBL17859_0_87
     RDKit          3D

 32 34  0  0  0  0  0  0  0  0999 V2000
    4.1870    1.6856    1.1110 N   0  0  0  0  0  0  0  0  0  0  0  0
    3.4978    0.5943    0.5441 C   0  0  0  0  0  0  0  0  0  0  0  0
    2.1186    0.6256    0.3923 C   0  0  0  0  0  0  0  0  0  0  0  0
    1.1716    1.5495    0.6884 N   0  0  0  0  0  0  0  0  0  0  0  0
   -0.0292    1.0615    0.3277 C   0  0  0  0  0  0  0  0  0  0  0  0
    0.1460   -0.1673   -0.1964 N   0  0  0  0  0  0  0  0  0  0  0  0
   -0.9306   -0.9796   -0.6861 C   0  0  0  0  0  0  0  0  0  0  0  0
   -2.1252    0.1626   -1.4883 S   0  0  0  0  0  0  0  0  0  0  0  0
   -3.5818   -0.2410   -0.4443 C   0  0  0  0  0  0  0  0  0  0  0  0
   -4.8381   -0.2669   -1.2726 C   0  0  0  0  0  0  0  0  0  0  0  0
   -4.9769    1.0181   -1.8315 O   0  0  0  0  0  0  0  0  0  0  0  0
   -3.1647   -1.6420   -0.0074 C   0  0  0  0  0  0  0  0  0  0  0  0
   -3.9317   -2.1074    1.0372 O   0  0  0  0  0  0  0  0  0  0  0  0
   -1.7555   -1.4326    0.5157 C   0  0  0  0  0  0  0  0  0  0  0  0
   -1.2456   -2.5620    1.1070 O   0  0  0  0  0  0  0  0  0  0  0  0
    1.4612   -0.4297   -0.1548 C   0  0  0  0  0  0  0  0  0  0  0  0
    2.1193   -1.5164   -0.5579 N   0  0  0  0  0  0  0  0  0  0  0  0
    3.4684   -1.5440   -0.4081 C   0  0  0  0  0  0  0  0  0  0  0  0
    4.3473   -2.9740   -0.9370 Cl  0  0  0  0  0  0  0  0  0  0  0  0
    4.1408   -0.5072    0.1326 N   0  0  0  0  0  0  0  0  0  0  0  0
    5.2108    1.6488    1.2177 H   0  0  0  0  0  0  0  0  0  0  0  0
    3.6668    2.5197    1.4186 H   0  0  0  0  0  0  0  0  0  0  0  0
   -0.9930    1.5792    0.4416 H   0  0  0  0  0  0  0  0  0  0  0  0
   -0.5307   -1.7890   -1.3146 H   0  0  0  0  0  0  0  0  0  0  0  0
   -3.8089    0.4608    0.3718 H   0  0  0  0  0  0  0  0  0  0  0  0
   -4.7520   -1.0203   -2.0695 H   0  0  0  0  0  0  0  0  0  0  0  0
   -5.7127   -0.5299   -0.6595 H   0  0  0  0  0  0  0  0  0  0  0  0
   -5.0492    1.6875   -1.1058 H   0  0  0  0  0  0  0  0  0  0  0  0
   -3.2636   -2.3653   -0.8302 H   0  0  0  0  0  0  0  0  0  0  0  0
   -3.5101   -1.8516    1.8957 H   0  0  0  0  0  0  0  0  0  0  0  0
   -1.7364   -0.6766    1.3144 H   0  0  0  0  0  0  0  0  0  0  0  0
   -1.2885   -2.4670    2.0915 H   0  0  0  0  0  0  0  0  0  0  0  0
  1  2  1  0
  2  3  2  0
  3  4  1  0
  4  5  2  0
  5  6  1  0
  6  7  1  0
  7  8  1  0
  8  9  1  0
  9 10  1  0
 10 11  1  0
  9 12  1  0
 12 13  1  0
 12 14  1  0
 14 15  1  0
  6 16  1  0
 16 17  2  0
 17 18  1  0
 18 19  1  0
 18 20  2  0
 20  2  1  0
 16  3  1  0
 14  7  1  0
  1 21  1  0
  1 22  1  0
  5 23  1  0
  7 24  1  0
  9 25  1  0
 10 26  1  0
 10 27  1  0
 11 28  1  0
 12 29  1  0
 13 30  1  0
 14 31  1  0
 15 32  1  0
M  END
>  <Original_Name>  (96) 
CHEMBL17859

>  <ROSHAMBO_ComboTanimoto>  (96) 
0.808

>  <ROSHAMBO_ShapeTanimoto>  (96) 
0.556

>  <ROSHAMBO_ColorTanimoto>  (96) 
0.251

>  <ROSHAMBO_FitTverskyCombo>  (96) 
1.221

>  <ROSHAMBO_FitTversky>  (96) 
0.819

>  <ROSHAMBO_FitColorTversky>  (96) 
0.402

>  <ROSHAMBO_RefTverskyCombo>  (96) 
1.036

>  <ROSHAMBO_RefTversky>  (96) 
0.634

>  <ROSHAMBO_RefColorTversky>  (96) 
0.402

>  <ROSHAMBO_Overlap>  (96) 
770.969

$$$$
CHEMBL17859_0_96
     RDKit          3D

 32 34  0  0  0  0  0  0  0  0999 V2000
    4.3055    1.6758    1.4669 N   0  0  0  0  0  0  0  0  0  0  0  0
    3.4541    0.7119    0.8785 C   0  0  0  0  0  0  0  0  0  0  0  0
    2.1154    0.9729    0.6438 C   0  0  0  0  0  0  0  0  0  0  0  0
    1.3385    2.0525    0.8682 N   0  0  0  0  0  0  0  0  0  0  0  0
    0.0951    1.7431    0.4358 C   0  0  0  0  0  0  0  0  0  0  0  0
    0.0798    0.5079   -0.0480 N   0  0  0  0  0  0  0  0  0  0  0  0
   -1.0673   -0.1824   -0.6043 C   0  0  0  0  0  0  0  0  0  0  0  0
   -2.5759    0.8139   -0.2871 S   0  0  0  0  0  0  0  0  0  0  0  0
   -3.6562   -0.5738    0.2403 C   0  0  0  0  0  0  0  0  0  0  0  0
   -4.8281   -0.6207   -0.7162 C   0  0  0  0  0  0  0  0  0  0  0  0
   -5.5596    0.5852   -0.6923 O   0  0  0  0  0  0  0  0  0  0  0  0
   -2.7986   -1.7723    0.0034 C   0  0  0  0  0  0  0  0  0  0  0  0
   -2.9813   -2.3172   -1.2459 O   0  0  0  0  0  0  0  0  0  0  0  0
   -1.3670   -1.3953    0.2212 C   0  0  0  0  0  0  0  0  0  0  0  0
   -0.5743   -2.4802   -0.0984 O   0  0  0  0  0  0  0  0  0  0  0  0
    1.3197   -0.0010    0.0656 C   0  0  0  0  0  0  0  0  0  0  0  0
    1.8793   -1.1869   -0.2547 N   0  0  0  0  0  0  0  0  0  0  0  0
    3.1784   -1.4542   -0.0324 C   0  0  0  0  0  0  0  0  0  0  0  0
    3.9221   -2.9871   -0.4414 Cl  0  0  0  0  0  0  0  0  0  0  0  0
    3.9339   -0.4953    0.5299 N   0  0  0  0  0  0  0  0  0  0  0  0
    5.2982    1.4549    1.6303 H   0  0  0  0  0  0  0  0  0  0  0  0
    3.9329    2.5988    1.7319 H   0  0  0  0  0  0  0  0  0  0  0  0
   -0.7743    2.4156    0.4788 H   0  0  0  0  0  0  0  0  0  0  0  0
   -0.8467   -0.3822   -1.6632 H   0  0  0  0  0  0  0  0  0  0  0  0
   -4.0284   -0.4990    1.2728 H   0  0  0  0  0  0  0  0  0  0  0  0
   -4.4516   -0.7910   -1.7356 H   0  0  0  0  0  0  0  0  0  0  0  0
   -5.4963   -1.4375   -0.4057 H   0  0  0  0  0  0  0  0  0  0  0  0
   -5.7225    0.8538    0.2465 H   0  0  0  0  0  0  0  0  0  0  0  0
   -3.0941   -2.5532    0.7196 H   0  0  0  0  0  0  0  0  0  0  0  0
   -3.2947   -3.2519   -1.1556 H   0  0  0  0  0  0  0  0  0  0  0  0
   -1.1606   -1.1380    1.2705 H   0  0  0  0  0  0  0  0  0  0  0  0
   -0.2575   -2.9138    0.7333 H   0  0  0  0  0  0  0  0  0  0  0  0
  1  2  1  0
  2  3  2  0
  3  4  1  0
  4  5  2  0
  5  6  1  0
  6  7  1  0
  7  8  1  0
  8  9  1  0
  9 10  1  0
 10 11  1  0
  9 12  1  0
 12 13  1  0
 12 14  1  0
 14 15  1  0
  6 16  1  0
 16 17  2  0
 17 18  1  0
 18 19  1  0
 18 20  2  0
 20  2  1  0
 16  3  1  0
 14  7  1  0
  1 21  1  0
  1 22  1  0
  5 23  1  0
  7 24  1  0
  9 25  1  0
 10 26  1  0
 10 27  1  0
 11 28  1  0
 12 29  1  0
 13 30  1  0
 14 31  1  0
 15 32  1  0
M  END
>  <Original_Name>  (97) 
CHEMBL17859

>  <ROSHAMBO_ComboTanimoto>  (97) 
0.806

>  <ROSHAMBO_ShapeTanimoto>  (97) 
0.565

>  <ROSHAMBO_ColorTanimoto>  (97) 
0.241

>  <ROSHAMBO_FitTverskyCombo>  (97) 
1.213

>  <ROSHAMBO_FitTversky>  (97) 
0.825

>  <ROSHAMBO_FitColorTversky>  (97) 
0.388

>  <ROSHAMBO_RefTverskyCombo>  (97) 
1.031

>  <ROSHAMBO_RefTversky>  (97) 
0.642

>  <ROSHAMBO_RefColorTversky>  (97) 
0.389

>  <ROSHAMBO_Overlap>  (97) 
780.371

$$$$
CHEMBL369573_0_1
     RDKit          3D

 32 35  0  0  0  0  0  0  0  0999 V2000
   -0.7883   -4.9972    0.9639 N   0  0  0  0  0  0  0  0  0  0  0  0
   -0.6955   -3.6080    0.6907 C   0  0  0  0  0  0  0  0  0  0  0  0
   -1.7983   -2.8389    0.5328 N   0  0  0  0  0  0  0  0  0  0  0  0
   -1.7342   -1.5280    0.2745 C   0  0  0  0  0  0  0  0  0  0  0  0
   -2.9681   -0.7669    0.1321 C   0  0  0  0  0  0  0  0  0  0  0  0
   -3.9558   -0.8269    1.1229 C   0  0  0  0  0  0  0  0  0  0  0  0
   -5.1140   -0.1161    0.9290 C   0  0  0  0  0  0  0  0  0  0  0  0
   -5.3173    0.6453   -0.2098 C   0  0  0  0  0  0  0  0  0  0  0  0
   -4.3384    0.6936   -1.1735 C   0  0  0  0  0  0  0  0  0  0  0  0
   -3.1891   -0.0078   -0.9889 C   0  0  0  0  0  0  0  0  0  0  0  0
   -0.4960   -0.9362    0.1663 C   0  0  0  0  0  0  0  0  0  0  0  0
   -0.0181    0.4099   -0.0788 C   0  0  0  0  0  0  0  0  0  0  0  0
   -0.7546    1.4007   -0.2690 O   0  0  0  0  0  0  0  0  0  0  0  0
    1.4355    0.4435   -0.0693 C   0  0  0  0  0  0  0  0  0  0  0  0
    2.3534    1.4851   -0.2542 C   0  0  0  0  0  0  0  0  0  0  0  0
    3.7021    1.2254   -0.1912 C   0  0  0  0  0  0  0  0  0  0  0  0
    4.1012   -0.0822    0.0576 C   0  0  0  0  0  0  0  0  0  0  0  0
    3.1972   -1.0982    0.2378 C   0  0  0  0  0  0  0  0  0  0  0  0
    1.8430   -0.8430    0.1756 C   0  0  0  0  0  0  0  0  0  0  0  0
    0.6734   -1.7006    0.3235 C   0  0  0  0  0  0  0  0  0  0  0  0
    0.4992   -3.0131    0.5804 N   0  0  0  0  0  0  0  0  0  0  0  0
    0.0681   -5.5578    1.0793 H   0  0  0  0  0  0  0  0  0  0  0  0
   -1.7121   -5.4452    1.0468 H   0  0  0  0  0  0  0  0  0  0  0  0
   -3.8074   -1.4276    2.0323 H   0  0  0  0  0  0  0  0  0  0  0  0
   -5.9003   -0.1521    1.6975 H   0  0  0  0  0  0  0  0  0  0  0  0
   -6.2541    1.2065   -0.3420 H   0  0  0  0  0  0  0  0  0  0  0  0
   -4.4837    1.2934   -2.0841 H   0  0  0  0  0  0  0  0  0  0  0  0
   -2.4101    0.0345   -1.7644 H   0  0  0  0  0  0  0  0  0  0  0  0
    1.9965    2.5072   -0.4491 H   0  0  0  0  0  0  0  0  0  0  0  0
    4.4416    2.0273   -0.3331 H   0  0  0  0  0  0  0  0  0  0  0  0
    5.1761   -0.3099    0.1117 H   0  0  0  0  0  0  0  0  0  0  0  0
    3.5535   -2.1205    0.4328 H   0  0  0  0  0  0  0  0  0  0  0  0
  1  2  1  0
  2  3  2  0
  3  4  1  0
  4  5  1  0
  5  6  2  0
  6  7  1  0
  7  8  2  0
  8  9  1  0
  9 10  2  0
  4 11  2  0
 11 12  1  0
 12 13  2  0
 12 14  1  0
 14 15  2  0
 15 16  1  0
 16 17  2  0
 17 18  1  0
 18 19  2  0
 19 20  1  0
 20 21  2  0
 21  2  1  0
 10  5  1  0
 20 11  1  0
 19 14  1  0
  1 22  1  0
  1 23  1  0
  6 24  1  0
  7 25  1  0
  8 26  1  0
  9 27  1  0
 10 28  1  0
 15 29  1  0
 16 30  1  0
 17 31  1  0
 18 32  1  0
M  END
>  <Original_Name>  (98) 
CHEMBL369573

>  <ROSHAMBO_ComboTanimoto>  (98) 
0.801

>  <ROSHAMBO_ShapeTanimoto>  (98) 
0.571

>  <ROSHAMBO_ColorTanimoto>  (98) 
0.23

>  <ROSHAMBO_FitTverskyCombo>  (98) 
1.222

>  <ROSHAMBO_FitTversky>  (98) 
0.789

>  <ROSHAMBO_FitColorTversky>  (98) 
0.433

>  <ROSHAMBO_RefTverskyCombo>  (98) 
1.002

>  <ROSHAMBO_RefTversky>  (98) 
0.673

>  <ROSHAMBO_RefColorTversky>  (98) 
0.329

>  <ROSHAMBO_Overlap>  (98) 
821.787

$$$$
CHEMBL181981_0_20
     RDKit          3D

 31 34  0  0  0  0  0  0  0  0999 V2000
   -0.8428   -4.8170    0.5803 N   0  0  0  0  0  0  0  0  0  0  0  0
   -0.7319   -3.4039    0.4567 C   0  0  0  0  0  0  0  0  0  0  0  0
    0.4962   -2.8416    0.5065 N   0  0  0  0  0  0  0  0  0  0  0  0
    0.6136   -1.5094    0.3911 C   0  0  0  0  0  0  0  0  0  0  0  0
   -0.4955   -0.7448    0.2265 C   0  0  0  0  0  0  0  0  0  0  0  0
   -0.1329    0.5074    0.1391 O   0  0  0  0  0  0  0  0  0  0  0  0
    1.1671    0.6203    0.2372 C   0  0  0  0  0  0  0  0  0  0  0  0
    1.7021   -0.6321    0.3997 C   0  0  0  0  0  0  0  0  0  0  0  0
    3.0514   -0.8826    0.5360 C   0  0  0  0  0  0  0  0  0  0  0  0
    3.8909    0.2136    0.5032 C   0  0  0  0  0  0  0  0  0  0  0  0
    3.4273    1.5029    0.3432 C   0  0  0  0  0  0  0  0  0  0  0  0
    2.0687    1.6825    0.2127 C   0  0  0  0  0  0  0  0  0  0  0  0
   -1.7470   -1.2958    0.1737 C   0  0  0  0  0  0  0  0  0  0  0  0
   -2.9597   -0.5239   -0.0003 C   0  0  0  0  0  0  0  0  0  0  0  0
   -3.9255   -0.9413   -0.8909 C   0  0  0  0  0  0  0  0  0  0  0  0
   -5.0725   -0.2187   -1.0608 C   0  0  0  0  0  0  0  0  0  0  0  0
   -5.3109    0.9406   -0.3608 C   0  0  0  0  0  0  0  0  0  0  0  0
   -4.3777    1.3781    0.5246 C   0  0  0  0  0  0  0  0  0  0  0  0
   -3.2194    0.6351    0.6866 C   0  0  0  0  0  0  0  0  0  0  0  0
   -1.8402   -2.6336    0.2916 N   0  0  0  0  0  0  0  0  0  0  0  0
   -1.7691   -5.2659    0.5450 H   0  0  0  0  0  0  0  0  0  0  0  0
    0.0033   -5.3909    0.7050 H   0  0  0  0  0  0  0  0  0  0  0  0
    3.4394   -1.9039    0.6645 H   0  0  0  0  0  0  0  0  0  0  0  0
    4.9738    0.0519    0.6089 H   0  0  0  0  0  0  0  0  0  0  0  0
    4.1191    2.3577    0.3207 H   0  0  0  0  0  0  0  0  0  0  0  0
    1.6800    2.7034    0.0843 H   0  0  0  0  0  0  0  0  0  0  0  0
   -3.7715   -1.8639   -1.4696 H   0  0  0  0  0  0  0  0  0  0  0  0
   -5.8268   -0.5744   -1.7780 H   0  0  0  0  0  0  0  0  0  0  0  0
   -6.2424    1.5049   -0.5152 H   0  0  0  0  0  0  0  0  0  0  0  0
   -4.5383    2.3017    1.1001 H   0  0  0  0  0  0  0  0  0  0  0  0
   -2.4673    0.9939    1.4047 H   0  0  0  0  0  0  0  0  0  0  0  0
  1  2  1  0
  2  3  2  0
  3  4  1  0
  4  5  2  0
  5  6  1  0
  6  7  1  0
  7  8  2  0
  8  9  1  0
  9 10  2  0
 10 11  1  0
 11 12  2  0
  5 13  1  0
 13 14  1  0
 14 15  2  0
 15 16  1  0
 16 17  2  0
 17 18  1  0
 18 19  2  0
 13 20  2  0
 20  2  1  0
  8  4  1  0
 19 14  1  0
 12  7  1  0
  1 21  1  0
  1 22  1  0
  9 23  1  0
 10 24  1  0
 11 25  1  0
 12 26  1  0
 15 27  1  0
 16 28  1  0
 17 29  1  0
 18 30  1  0
 19 31  1  0
M  END
>  <Original_Name>  (99) 
CHEMBL181981

>  <ROSHAMBO_ComboTanimoto>  (99) 
0.8

>  <ROSHAMBO_ShapeTanimoto>  (99) 
0.548

>  <ROSHAMBO_ColorTanimoto>  (99) 
0.252

>  <ROSHAMBO_FitTverskyCombo>  (99) 
1.244

>  <ROSHAMBO_FitTversky>  (99) 
0.781

>  <ROSHAMBO_FitColorTversky>  (99) 
0.463

>  <ROSHAMBO_RefTverskyCombo>  (99) 
1.004

>  <ROSHAMBO_RefTversky>  (99) 
0.648

>  <ROSHAMBO_RefColorTversky>  (99) 
0.357

>  <ROSHAMBO_Overlap>  (99) 
789.308

$$$$
CHEMBL17859_0_55
     RDKit          3D

 32 34  0  0  0  0  0  0  0  0999 V2000
    4.2818    1.4354    1.8076 N   0  0  0  0  0  0  0  0  0  0  0  0
    3.5350    0.5065    1.0358 C   0  0  0  0  0  0  0  0  0  0  0  0
    2.1951    0.7418    0.8146 C   0  0  0  0  0  0  0  0  0  0  0  0
    1.3506    1.7226    1.1846 N   0  0  0  0  0  0  0  0  0  0  0  0
    0.1325    1.4526    0.6875 C   0  0  0  0  0  0  0  0  0  0  0  0
    0.1509    0.3108   -0.0062 N   0  0  0  0  0  0  0  0  0  0  0  0
   -0.8974   -0.3748   -0.7116 C   0  0  0  0  0  0  0  0  0  0  0  0
   -2.3093    0.7540   -1.0367 S   0  0  0  0  0  0  0  0  0  0  0  0
   -3.5856   -0.5310   -0.9172 C   0  0  0  0  0  0  0  0  0  0  0  0
   -4.7709   -0.0781   -0.1072 C   0  0  0  0  0  0  0  0  0  0  0  0
   -5.3379    1.0394   -0.7014 O   0  0  0  0  0  0  0  0  0  0  0  0
   -2.9027   -1.7292   -0.3865 C   0  0  0  0  0  0  0  0  0  0  0  0
   -3.6626   -2.2390    0.6798 O   0  0  0  0  0  0  0  0  0  0  0  0
   -1.5507   -1.4117    0.1171 C   0  0  0  0  0  0  0  0  0  0  0  0
   -0.7702   -2.5759    0.0508 O   0  0  0  0  0  0  0  0  0  0  0  0
    1.4202   -0.1434    0.0618 C   0  0  0  0  0  0  0  0  0  0  0  0
    2.0565   -1.2309   -0.4302 N   0  0  0  0  0  0  0  0  0  0  0  0
    3.3608   -1.4854   -0.2305 C   0  0  0  0  0  0  0  0  0  0  0  0
    4.1266   -2.9286   -0.9049 Cl  0  0  0  0  0  0  0  0  0  0  0  0
    4.0643   -0.6055    0.4997 N   0  0  0  0  0  0  0  0  0  0  0  0
    5.2840    1.2728    1.9812 H   0  0  0  0  0  0  0  0  0  0  0  0
    3.8214    2.2719    2.1939 H   0  0  0  0  0  0  0  0  0  0  0  0
   -0.7568    2.0839    0.8314 H   0  0  0  0  0  0  0  0  0  0  0  0
   -0.4034   -0.7759   -1.6089 H   0  0  0  0  0  0  0  0  0  0  0  0
   -4.0304   -0.7639   -1.8959 H   0  0  0  0  0  0  0  0  0  0  0  0
   -5.5150   -0.8870   -0.0627 H   0  0  0  0  0  0  0  0  0  0  0  0
   -4.4430    0.1753    0.9118 H   0  0  0  0  0  0  0  0  0  0  0  0
   -5.6538    1.6619    0.0005 H   0  0  0  0  0  0  0  0  0  0  0  0
   -2.8060   -2.4599   -1.2030 H   0  0  0  0  0  0  0  0  0  0  0  0
   -3.2528   -1.9641    1.5381 H   0  0  0  0  0  0  0  0  0  0  0  0
   -1.6404   -1.0381    1.1479 H   0  0  0  0  0  0  0  0  0  0  0  0
   -0.5621   -2.8864    0.9675 H   0  0  0  0  0  0  0  0  0  0  0  0
  1  2  1  0
  2  3  2  0
  3  4  1  0
  4  5  2  0
  5  6  1  0
  6  7  1  0
  7  8  1  0
  8  9  1  0
  9 10  1  0
 10 11  1  0
  9 12  1  0
 12 13  1  0
 12 14  1  0
 14 15  1  0
  6 16  1  0
 16 17  2  0
 17 18  1  0
 18 19  1  0
 18 20  2  0
 20  2  1  0
 16  3  1  0
 14  7  1  0
  1 21  1  0
  1 22  1  0
  5 23  1  0
  7 24  1  0
  9 25  1  0
 10 26  1  0
 10 27  1  0
 11 28  1  0
 12 29  1  0
 13 30  1  0
 14 31  1  0
 15 32  1  0
M  END
>  <Original_Name>  (100) 
CHEMBL17859

>  <ROSHAMBO_ComboTanimoto>  (100) 
0.8

>  <ROSHAMBO_ShapeTanimoto>  (100) 
0.562

>  <ROSHAMBO_ColorTanimoto>  (100) 
0.238

>  <ROSHAMBO_FitTverskyCombo>  (100) 
1.209

>  <ROSHAMBO_FitTversky>  (100) 
0.824

>  <ROSHAMBO_FitColorTversky>  (100) 
0.385

>  <ROSHAMBO_RefTverskyCombo>  (100) 
1.023

>  <ROSHAMBO_RefTversky>  (100) 
0.639

>  <ROSHAMBO_RefColorTversky>  (100) 
0.384

>  <ROSHAMBO_Overlap>  (100) 
776.79

$$$$
CHEMBL17859_0_84
     RDKit          3D

 32 34  0  0  0  0  0  0  0  0999 V2000
    3.3918   -0.2166    0.5351 N   0  0  0  0  0  0  0  0  0  0  0  0
    2.0395    0.1693    0.3182 C   0  0  0  0  0  0  0  0  0  0  0  0
    1.0889   -0.7832   -0.0043 C   0  0  0  0  0  0  0  0  0  0  0  0
    1.1410   -2.1053   -0.1776 N   0  0  0  0  0  0  0  0  0  0  0  0
   -0.0954   -2.5374   -0.4849 C   0  0  0  0  0  0  0  0  0  0  0  0
   -0.9646   -1.5097   -0.5160 N   0  0  0  0  0  0  0  0  0  0  0  0
   -2.3627   -1.6626   -0.8169 C   0  0  0  0  0  0  0  0  0  0  0  0
   -2.9948   -0.2482   -1.7934 S   0  0  0  0  0  0  0  0  0  0  0  0
   -4.5903   -0.1572   -0.9230 C   0  0  0  0  0  0  0  0  0  0  0  0
   -5.0890    1.2672   -0.8763 C   0  0  0  0  0  0  0  0  0  0  0  0
   -6.3089    1.3555   -0.2139 O   0  0  0  0  0  0  0  0  0  0  0  0
   -4.2241   -0.6621    0.4175 C   0  0  0  0  0  0  0  0  0  0  0  0
   -5.3715   -1.1295    1.0995 O   0  0  0  0  0  0  0  0  0  0  0  0
   -3.2515   -1.7538    0.3510 C   0  0  0  0  0  0  0  0  0  0  0  0
   -3.8663   -3.0265    0.4169 O   0  0  0  0  0  0  0  0  0  0  0  0
   -0.2437   -0.4227   -0.2207 C   0  0  0  0  0  0  0  0  0  0  0  0
   -0.6079    0.8499   -0.1168 N   0  0  0  0  0  0  0  0  0  0  0  0
    0.3256    1.7678    0.1975 C   0  0  0  0  0  0  0  0  0  0  0  0
   -0.0800    3.4773    0.3539 Cl  0  0  0  0  0  0  0  0  0  0  0  0
    1.6201    1.4446    0.4116 N   0  0  0  0  0  0  0  0  0  0  0  0
    4.0980    0.4938    0.7751 H   0  0  0  0  0  0  0  0  0  0  0  0
    3.6646   -1.2064    0.4521 H   0  0  0  0  0  0  0  0  0  0  0  0
   -0.3599   -3.5865   -0.6836 H   0  0  0  0  0  0  0  0  0  0  0  0
   -2.3889   -2.6155   -1.3657 H   0  0  0  0  0  0  0  0  0  0  0  0
   -5.4063   -0.7243   -1.3949 H   0  0  0  0  0  0  0  0  0  0  0  0
   -4.3496    1.8882   -0.3493 H   0  0  0  0  0  0  0  0  0  0  0  0
   -5.2290    1.6194   -1.9089 H   0  0  0  0  0  0  0  0  0  0  0  0
   -6.1550    1.3444    0.7640 H   0  0  0  0  0  0  0  0  0  0  0  0
   -3.7709    0.1823    0.9575 H   0  0  0  0  0  0  0  0  0  0  0  0
   -5.2224   -1.0688    2.0763 H   0  0  0  0  0  0  0  0  0  0  0  0
   -2.6216   -1.6372    1.2452 H   0  0  0  0  0  0  0  0  0  0  0  0
   -3.9907   -3.2842    1.3646 H   0  0  0  0  0  0  0  0  0  0  0  0
  1  2  1  0
  2  3  2  0
  3  4  1  0
  4  5  2  0
  5  6  1  0
  6  7  1  0
  7  8  1  0
  8  9  1  0
  9 10  1  0
 10 11  1  0
  9 12  1  0
 12 13  1  0
 12 14  1  0
 14 15  1  0
  6 16  1  0
 16 17  2  0
 17 18  1  0
 18 19  1  0
 18 20  2  0
 20  2  1  0
 16  3  1  0
 14  7  1  0
  1 21  1  0
  1 22  1  0
  5 23  1  0
  7 24  1  0
  9 25  1  0
 10 26  1  0
 10 27  1  0
 11 28  1  0
 12 29  1  0
 13 30  1  0
 14 31  1  0
 15 32  1  0
M  END
>  <Original_Name>  (101) 
CHEMBL17859

>  <ROSHAMBO_ComboTanimoto>  (101) 
0.8

>  <ROSHAMBO_ShapeTanimoto>  (101) 
0.578

>  <ROSHAMBO_ColorTanimoto>  (101) 
0.221

>  <ROSHAMBO_FitTverskyCombo>  (101) 
1.2

>  <ROSHAMBO_FitTversky>  (101) 
0.839

>  <ROSHAMBO_FitColorTversky>  (101) 
0.361

>  <ROSHAMBO_RefTverskyCombo>  (101) 
1.014

>  <ROSHAMBO_RefTversky>  (101) 
0.651

>  <ROSHAMBO_RefColorTversky>  (101) 
0.364

>  <ROSHAMBO_Overlap>  (101) 
790.876

$$$$
CHEMBL17859_0_68
     RDKit          3D

 32 34  0  0  0  0  0  0  0  0999 V2000
    3.5992   -1.4167   -0.0409 N   0  0  0  0  0  0  0  0  0  0  0  0
    2.4327   -0.6691    0.2326 C   0  0  0  0  0  0  0  0  0  0  0  0
    1.1589   -1.2028    0.2299 C   0  0  0  0  0  0  0  0  0  0  0  0
    0.7403   -2.4729   -0.0154 N   0  0  0  0  0  0  0  0  0  0  0  0
   -0.5967   -2.4770    0.1059 C   0  0  0  0  0  0  0  0  0  0  0  0
   -1.0601   -1.2771    0.4161 N   0  0  0  0  0  0  0  0  0  0  0  0
   -2.3914   -0.8268    0.6382 C   0  0  0  0  0  0  0  0  0  0  0  0
   -2.8162    0.6077   -0.4319 S   0  0  0  0  0  0  0  0  0  0  0  0
   -4.5700    0.1956   -0.6956 C   0  0  0  0  0  0  0  0  0  0  0  0
   -4.8830    0.0224   -2.1596 C   0  0  0  0  0  0  0  0  0  0  0  0
   -4.6101    1.1947   -2.8651 O   0  0  0  0  0  0  0  0  0  0  0  0
   -4.7325   -1.0413    0.1075 C   0  0  0  0  0  0  0  0  0  0  0  0
   -5.7108   -1.8302   -0.4877 O   0  0  0  0  0  0  0  0  0  0  0  0
   -3.4300   -1.7987    0.1436 C   0  0  0  0  0  0  0  0  0  0  0  0
   -3.1592   -2.1986   -1.1555 O   0  0  0  0  0  0  0  0  0  0  0  0
    0.0280   -0.4618    0.4986 C   0  0  0  0  0  0  0  0  0  0  0  0
    0.1848    0.8454    0.7761 N   0  0  0  0  0  0  0  0  0  0  0  0
    1.4197    1.3734    0.7810 C   0  0  0  0  0  0  0  0  0  0  0  0
    1.6573    3.0816    1.1406 Cl  0  0  0  0  0  0  0  0  0  0  0  0
    2.5307    0.6472    0.5174 N   0  0  0  0  0  0  0  0  0  0  0  0
    4.5211   -0.9578   -0.0227 H   0  0  0  0  0  0  0  0  0  0  0  0
    3.5280   -2.4209   -0.2585 H   0  0  0  0  0  0  0  0  0  0  0  0
   -1.2280   -3.3667   -0.0350 H   0  0  0  0  0  0  0  0  0  0  0  0
   -2.4068   -0.6417    1.7224 H   0  0  0  0  0  0  0  0  0  0  0  0
   -5.2735    0.9822   -0.3850 H   0  0  0  0  0  0  0  0  0  0  0  0
   -4.2687   -0.7947   -2.5658 H   0  0  0  0  0  0  0  0  0  0  0  0
   -5.9520   -0.2138   -2.2668 H   0  0  0  0  0  0  0  0  0  0  0  0
   -4.4385    1.9317   -2.2267 H   0  0  0  0  0  0  0  0  0  0  0  0
   -5.0265   -0.7844    1.1359 H   0  0  0  0  0  0  0  0  0  0  0  0
   -6.2540   -2.2682    0.2146 H   0  0  0  0  0  0  0  0  0  0  0  0
   -3.4514   -2.6844    0.7956 H   0  0  0  0  0  0  0  0  0  0  0  0
   -2.6041   -3.0182   -1.1396 H   0  0  0  0  0  0  0  0  0  0  0  0
  1  2  1  0
  2  3  2  0
  3  4  1  0
  4  5  2  0
  5  6  1  0
  6  7  1  0
  7  8  1  0
  8  9  1  0
  9 10  1  0
 10 11  1  0
  9 12  1  0
 12 13  1  0
 12 14  1  0
 14 15  1  0
  6 16  1  0
 16 17  2  0
 17 18  1  0
 18 19  1  0
 18 20  2  0
 20  2  1  0
 16  3  1  0
 14  7  1  0
  1 21  1  0
  1 22  1  0
  5 23  1  0
  7 24  1  0
  9 25  1  0
 10 26  1  0
 10 27  1  0
 11 28  1  0
 12 29  1  0
 13 30  1  0
 14 31  1  0
 15 32  1  0
M  END
>  <Original_Name>  (102) 
CHEMBL17859

>  <ROSHAMBO_ComboTanimoto>  (102) 
0.796

>  <ROSHAMBO_ShapeTanimoto>  (102) 
0.549

>  <ROSHAMBO_ColorTanimoto>  (102) 
0.247

>  <ROSHAMBO_FitTverskyCombo>  (102) 
1.205

>  <ROSHAMBO_FitTversky>  (102) 
0.809

>  <ROSHAMBO_FitColorTversky>  (102) 
0.396

>  <ROSHAMBO_RefTverskyCombo>  (102) 
1.027

>  <ROSHAMBO_RefTversky>  (102) 
0.631

>  <ROSHAMBO_RefColorTversky>  (102) 
0.396

>  <ROSHAMBO_Overlap>  (102) 
766.931

$$$$
CHEMBL220445_0_79
     RDKit          3D

 28 29  0  0  0  0  0  0  0  0999 V2000
   -4.0106    0.4081   -1.0513 C   0  0  0  0  0  0  0  0  0  0  0  0
   -3.7460    1.0309    0.3253 C   0  0  0  0  0  0  0  0  0  0  0  0
   -2.0676    1.7231    0.3759 S   0  0  0  0  0  0  0  0  0  0  0  0
   -0.8858    0.3914    0.2620 C   0  0  0  0  0  0  0  0  0  0  0  0
   -1.3102   -0.8872    0.1613 N   0  0  0  0  0  0  0  0  0  0  0  0
   -0.4535   -1.9194    0.0722 C   0  0  0  0  0  0  0  0  0  0  0  0
   -1.0080   -3.2226   -0.0294 N   0  0  0  0  0  0  0  0  0  0  0  0
    0.8641   -1.6505    0.0855 N   0  0  0  0  0  0  0  0  0  0  0  0
    1.3400   -0.3914    0.1843 C   0  0  0  0  0  0  0  0  0  0  0  0
    2.7942   -0.1358    0.1936 C   0  0  0  0  0  0  0  0  0  0  0  0
    3.2819    1.1417    0.2965 C   0  0  0  0  0  0  0  0  0  0  0  0
    4.6412    1.3654    0.3048 C   0  0  0  0  0  0  0  0  0  0  0  0
    5.5711    0.3530    0.2131 C   0  0  0  0  0  0  0  0  0  0  0  0
    5.0531   -0.9392    0.1094 C   0  0  0  0  0  0  0  0  0  0  0  0
    3.6942   -1.1735    0.1002 C   0  0  0  0  0  0  0  0  0  0  0  0
    0.4381    0.5995    0.2703 N   0  0  0  0  0  0  0  0  0  0  0  0
   -4.4379   -0.5973   -0.9229 H   0  0  0  0  0  0  0  0  0  0  0  0
   -4.7185    1.0388   -1.6091 H   0  0  0  0  0  0  0  0  0  0  0  0
   -3.0653    0.3363   -1.6091 H   0  0  0  0  0  0  0  0  0  0  0  0
   -4.4769    1.8319    0.5103 H   0  0  0  0  0  0  0  0  0  0  0  0
   -3.8420    0.2551    1.0992 H   0  0  0  0  0  0  0  0  0  0  0  0
   -0.3880   -4.0420   -0.0997 H   0  0  0  0  0  0  0  0  0  0  0  0
   -2.0303   -3.3484   -0.0328 H   0  0  0  0  0  0  0  0  0  0  0  0
    2.5859    1.9901    0.3726 H   0  0  0  0  0  0  0  0  0  0  0  0
    5.0012    2.4014    0.3885 H   0  0  0  0  0  0  0  0  0  0  0  0
    6.6532    0.5504    0.2210 H   0  0  0  0  0  0  0  0  0  0  0  0
    5.7453   -1.7907    0.0334 H   0  0  0  0  0  0  0  0  0  0  0  0
    3.3234   -2.2058    0.0168 H   0  0  0  0  0  0  0  0  0  0  0  0
  1  2  1  0
  2  3  1  0
  3  4  1  0
  4  5  2  0
  5  6  1  0
  6  7  1  0
  6  8  2  0
  8  9  1  0
  9 10  1  0
 10 11  2  0
 11 12  1  0
 12 13  2  0
 13 14  1  0
 14 15  2  0
  9 16  2  0
 16  4  1  0
 15 10  1  0
  1 17  1  0
  1 18  1  0
  1 19  1  0
  2 20  1  0
  2 21  1  0
  7 22  1  0
  7 23  1  0
 11 24  1  0
 12 25  1  0
 13 26  1  0
 14 27  1  0
 15 28  1  0
M  END
>  <Original_Name>  (103) 
CHEMBL220445

>  <ROSHAMBO_ComboTanimoto>  (103) 
0.796

>  <ROSHAMBO_ShapeTanimoto>  (103) 
0.539

>  <ROSHAMBO_ColorTanimoto>  (103) 
0.257

>  <ROSHAMBO_FitTverskyCombo>  (103) 
1.47

>  <ROSHAMBO_FitTversky>  (103) 
0.917

>  <ROSHAMBO_FitColorTversky>  (103) 
0.553

>  <ROSHAMBO_RefTverskyCombo>  (103) 
0.891

>  <ROSHAMBO_RefTversky>  (103) 
0.566

>  <ROSHAMBO_RefColorTversky>  (103) 
0.325

>  <ROSHAMBO_Overlap>  (103) 
682.285

$$$$
CHEMBL515992_0_90
     RDKit          3D

 41 43  0  0  0  0  0  0  0  0999 V2000
    0.1602    5.2308   -0.4935 C   0  0  0  0  0  0  0  0  0  0  0  0
    0.5980    3.8279   -0.6166 C   0  0  0  0  0  0  0  0  0  0  0  0
    0.7229    3.2872   -1.7405 O   0  0  0  0  0  0  0  0  0  0  0  0
    0.9019    3.0128    0.5283 N   0  0  0  0  0  0  0  0  0  0  0  0
    1.3214    1.6672    0.4003 C   0  0  0  0  0  0  0  0  0  0  0  0
    2.6908    1.4016    0.2927 C   0  0  0  0  0  0  0  0  0  0  0  0
    3.1372    0.1123    0.1672 C   0  0  0  0  0  0  0  0  0  0  0  0
    4.4992   -0.2004    0.0586 N   0  0  0  0  0  0  0  0  0  0  0  0
    5.0575   -1.5309   -0.0882 C   0  0  0  0  0  0  0  0  0  0  0  0
    6.1739   -1.2803   -1.0769 C   0  0  0  0  0  0  0  0  0  0  0  0
    6.7765   -0.0049   -0.5763 C   0  0  0  0  0  0  0  0  0  0  0  0
    5.6137    0.6689    0.0645 C   0  0  0  0  0  0  0  0  0  0  0  0
    5.6895    1.8392    0.5199 O   0  0  0  0  0  0  0  0  0  0  0  0
    2.2006   -0.8590    0.1539 N   0  0  0  0  0  0  0  0  0  0  0  0
    0.8798   -0.6389    0.2549 C   0  0  0  0  0  0  0  0  0  0  0  0
   -0.0395   -1.7378    0.2313 N   0  0  0  0  0  0  0  0  0  0  0  0
    0.1391   -2.9580    0.6996 N   0  0  0  0  0  0  0  0  0  0  0  0
   -0.9519   -3.7150    0.4944 C   0  0  0  0  0  0  0  0  0  0  0  0
   -1.1502   -5.1498    0.8766 C   0  0  0  0  0  0  0  0  0  0  0  0
   -1.8656   -2.9251   -0.1381 C   0  0  0  0  0  0  0  0  0  0  0  0
   -1.2707   -1.6813   -0.2949 C   0  0  0  0  0  0  0  0  0  0  0  0
   -1.9604   -0.5478   -0.9462 C   0  0  0  0  0  0  0  0  0  0  0  0
    0.4729    0.6359    0.3769 N   0  0  0  0  0  0  0  0  0  0  0  0
    0.0771    5.4970    0.5705 H   0  0  0  0  0  0  0  0  0  0  0  0
    0.8958    5.8884   -0.9797 H   0  0  0  0  0  0  0  0  0  0  0  0
   -0.8189    5.3533   -0.9797 H   0  0  0  0  0  0  0  0  0  0  0  0
    0.8116    3.4205    1.4699 H   0  0  0  0  0  0  0  0  0  0  0  0
    3.4125    2.2316    0.3091 H   0  0  0  0  0  0  0  0  0  0  0  0
    5.4453   -1.9120    0.8680 H   0  0  0  0  0  0  0  0  0  0  0  0
    4.3307   -2.2894   -0.4144 H   0  0  0  0  0  0  0  0  0  0  0  0
    6.9085   -2.0989   -1.0615 H   0  0  0  0  0  0  0  0  0  0  0  0
    5.8284   -1.2202   -2.1195 H   0  0  0  0  0  0  0  0  0  0  0  0
    7.5746   -0.2019    0.1547 H   0  0  0  0  0  0  0  0  0  0  0  0
    7.2520    0.5958   -1.3656 H   0  0  0  0  0  0  0  0  0  0  0  0
   -1.1625   -5.2388    1.9729 H   0  0  0  0  0  0  0  0  0  0  0  0
   -2.1065   -5.5091    0.4687 H   0  0  0  0  0  0  0  0  0  0  0  0
   -0.3272   -5.7550    0.4687 H   0  0  0  0  0  0  0  0  0  0  0  0
   -2.8761   -3.2166   -0.4607 H   0  0  0  0  0  0  0  0  0  0  0  0
   -2.3690    0.1238   -0.1768 H   0  0  0  0  0  0  0  0  0  0  0  0
   -1.2454    0.0050   -1.5732 H   0  0  0  0  0  0  0  0  0  0  0  0
   -2.7800   -0.9286   -1.5732 H   0  0  0  0  0  0  0  0  0  0  0  0
  1  2  1  0
  2  3  2  0
  2  4  1  0
  4  5  1  0
  5  6  2  0
  6  7  1  0
  7  8  1  0
  8  9  1  0
  9 10  1  0
 10 11  1  0
 11 12  1  0
 12 13  2  0
  7 14  2  0
 14 15  1  0
 15 16  1  0
 16 17  1  0
 17 18  2  0
 18 19  1  0
 18 20  1  0
 20 21  2  0
 21 22  1  0
 15 23  2  0
 23  5  1  0
 12  8  1  0
 21 16  1  0
  1 24  1  0
  1 25  1  0
  1 26  1  0
  4 27  1  0
  6 28  1  0
  9 29  1  0
  9 30  1  0
 10 31  1  0
 10 32  1  0
 11 33  1  0
 11 34  1  0
 19 35  1  0
 19 36  1  0
 19 37  1  0
 20 38  1  0
 22 39  1  0
 22 40  1  0
 22 41  1  0
M  END
>  <Original_Name>  (104) 
CHEMBL515992

>  <ROSHAMBO_ComboTanimoto>  (104) 
0.794

>  <ROSHAMBO_ShapeTanimoto>  (104) 
0.506

>  <ROSHAMBO_ColorTanimoto>  (104) 
0.288

>  <ROSHAMBO_FitTverskyCombo>  (104) 
1.277

>  <ROSHAMBO_FitTversky>  (104) 
0.711

>  <ROSHAMBO_FitColorTversky>  (104) 
0.566

>  <ROSHAMBO_RefTverskyCombo>  (104) 
1.006

>  <ROSHAMBO_RefTversky>  (104) 
0.637

>  <ROSHAMBO_RefColorTversky>  (104) 
0.369

>  <ROSHAMBO_Overlap>  (104) 
779.262

$$$$
CHEMBL17859_0_51
     RDKit          3D

 32 34  0  0  0  0  0  0  0  0999 V2000
    4.1704    1.6860    0.1898 N   0  0  0  0  0  0  0  0  0  0  0  0
    3.3856    0.5017    0.1964 C   0  0  0  0  0  0  0  0  0  0  0  0
    2.0097    0.6244    0.2520 C   0  0  0  0  0  0  0  0  0  0  0  0
    1.2125    1.6967    0.3043 N   0  0  0  0  0  0  0  0  0  0  0  0
   -0.0657    1.2804    0.3453 C   0  0  0  0  0  0  0  0  0  0  0  0
   -0.1131   -0.0696    0.3202 N   0  0  0  0  0  0  0  0  0  0  0  0
   -1.3071   -0.9006    0.3497 C   0  0  0  0  0  0  0  0  0  0  0  0
   -2.6948    0.1488    0.9356 S   0  0  0  0  0  0  0  0  0  0  0  0
   -3.8171   -0.0693   -0.5035 C   0  0  0  0  0  0  0  0  0  0  0  0
   -5.1956   -0.2980    0.0423 C   0  0  0  0  0  0  0  0  0  0  0  0
   -5.2060   -1.4249    0.8351 O   0  0  0  0  0  0  0  0  0  0  0  0
   -3.2098   -1.3292   -1.0964 C   0  0  0  0  0  0  0  0  0  0  0  0
   -3.6086   -2.4134   -0.3522 O   0  0  0  0  0  0  0  0  0  0  0  0
   -1.7180   -1.1412   -1.0812 C   0  0  0  0  0  0  0  0  0  0  0  0
   -1.3314   -0.1051   -1.8903 O   0  0  0  0  0  0  0  0  0  0  0  0
    1.1699   -0.4697    0.2626 C   0  0  0  0  0  0  0  0  0  0  0  0
    1.7434   -1.6889    0.2160 N   0  0  0  0  0  0  0  0  0  0  0  0
    3.0797   -1.8312    0.1615 C   0  0  0  0  0  0  0  0  0  0  0  0
    3.7766   -3.4451    0.1023 Cl  0  0  0  0  0  0  0  0  0  0  0  0
    3.8951   -0.7360    0.1519 N   0  0  0  0  0  0  0  0  0  0  0  0
    5.1977    1.6229    0.1488 H   0  0  0  0  0  0  0  0  0  0  0  0
    3.7121    2.6077    0.2259 H   0  0  0  0  0  0  0  0  0  0  0  0
   -0.9434    1.9418    0.3925 H   0  0  0  0  0  0  0  0  0  0  0  0
   -1.1162   -1.8044    0.9470 H   0  0  0  0  0  0  0  0  0  0  0  0
   -3.9044    0.7554   -1.2262 H   0  0  0  0  0  0  0  0  0  0  0  0
   -5.4993    0.5725    0.6422 H   0  0  0  0  0  0  0  0  0  0  0  0
   -5.8970   -0.4373   -0.7935 H   0  0  0  0  0  0  0  0  0  0  0  0
   -5.2035   -1.1577    1.7884 H   0  0  0  0  0  0  0  0  0  0  0  0
   -3.5411   -1.5107   -2.1295 H   0  0  0  0  0  0  0  0  0  0  0  0
   -3.5299   -2.1993    0.6112 H   0  0  0  0  0  0  0  0  0  0  0  0
   -1.2210   -2.0392   -1.4769 H   0  0  0  0  0  0  0  0  0  0  0  0
   -1.0457    0.6608   -1.3318 H   0  0  0  0  0  0  0  0  0  0  0  0
  1  2  1  0
  2  3  2  0
  3  4  1  0
  4  5  2  0
  5  6  1  0
  6  7  1  0
  7  8  1  0
  8  9  1  0
  9 10  1  0
 10 11  1  0
  9 12  1  0
 12 13  1  0
 12 14  1  0
 14 15  1  0
  6 16  1  0
 16 17  2  0
 17 18  1  0
 18 19  1  0
 18 20  2  0
 20  2  1  0
 16  3  1  0
 14  7  1  0
  1 21  1  0
  1 22  1  0
  5 23  1  0
  7 24  1  0
  9 25  1  0
 10 26  1  0
 10 27  1  0
 11 28  1  0
 12 29  1  0
 13 30  1  0
 14 31  1  0
 15 32  1  0
M  END
>  <Original_Name>  (105) 
CHEMBL17859

>  <ROSHAMBO_ComboTanimoto>  (105) 
0.792

>  <ROSHAMBO_ShapeTanimoto>  (105) 
0.551

>  <ROSHAMBO_ColorTanimoto>  (105) 
0.241

>  <ROSHAMBO_FitTverskyCombo>  (105) 
1.195

>  <ROSHAMBO_FitTversky>  (105) 
0.809

>  <ROSHAMBO_FitColorTversky>  (105) 
0.386

>  <ROSHAMBO_RefTverskyCombo>  (105) 
1.025

>  <ROSHAMBO_RefTversky>  (105) 
0.634

>  <ROSHAMBO_RefColorTversky>  (105) 
0.391

>  <ROSHAMBO_Overlap>  (105) 
770.925

$$$$
CHEMBL17859_0_41
     RDKit          3D

 32 34  0  0  0  0  0  0  0  0999 V2000
    4.5373    1.8407   -0.7076 N   0  0  0  0  0  0  0  0  0  0  0  0
    3.5922    0.8297   -0.3669 C   0  0  0  0  0  0  0  0  0  0  0  0
    2.2818    1.1529   -0.0798 C   0  0  0  0  0  0  0  0  0  0  0  0
    1.5894    2.3125   -0.0345 N   0  0  0  0  0  0  0  0  0  0  0  0
    0.3017    2.0651    0.3083 C   0  0  0  0  0  0  0  0  0  0  0  0
    0.1604    0.7574    0.4836 N   0  0  0  0  0  0  0  0  0  0  0  0
   -1.0440    0.0585    0.8545 C   0  0  0  0  0  0  0  0  0  0  0  0
   -2.4863    1.1762    0.8378 S   0  0  0  0  0  0  0  0  0  0  0  0
   -3.6358   -0.0585    0.1282 C   0  0  0  0  0  0  0  0  0  0  0  0
   -4.6309    0.6059   -0.7953 C   0  0  0  0  0  0  0  0  0  0  0  0
   -5.4010    1.5643   -0.1358 O   0  0  0  0  0  0  0  0  0  0  0  0
   -2.7138   -0.9027   -0.6577 C   0  0  0  0  0  0  0  0  0  0  0  0
   -3.3082   -2.1753   -0.7876 O   0  0  0  0  0  0  0  0  0  0  0  0
   -1.4045   -1.0488   -0.0376 C   0  0  0  0  0  0  0  0  0  0  0  0
   -1.2963   -2.2860    0.6394 O   0  0  0  0  0  0  0  0  0  0  0  0
    1.3334    0.1838    0.2573 C   0  0  0  0  0  0  0  0  0  0  0  0
    1.7391   -1.0848    0.2940 N   0  0  0  0  0  0  0  0  0  0  0  0
    3.0095   -1.4078    0.0168 C   0  0  0  0  0  0  0  0  0  0  0  0
    3.4407   -3.1130    0.0942 Cl  0  0  0  0  0  0  0  0  0  0  0  0
    3.9355   -0.4699   -0.3114 N   0  0  0  0  0  0  0  0  0  0  0  0
    5.5121    1.5840   -0.9194 H   0  0  0  0  0  0  0  0  0  0  0  0
    4.2456    2.8279   -0.7421 H   0  0  0  0  0  0  0  0  0  0  0  0
   -0.4908    2.8195    0.4218 H   0  0  0  0  0  0  0  0  0  0  0  0
   -0.8146   -0.3338    1.8562 H   0  0  0  0  0  0  0  0  0  0  0  0
   -4.2280   -0.5992    0.8811 H   0  0  0  0  0  0  0  0  0  0  0  0
   -4.0830    1.0939   -1.6148 H   0  0  0  0  0  0  0  0  0  0  0  0
   -5.3104   -0.1709   -1.1759 H   0  0  0  0  0  0  0  0  0  0  0  0
   -5.3068    1.4471    0.8427 H   0  0  0  0  0  0  0  0  0  0  0  0
   -2.5489   -0.4183   -1.6314 H   0  0  0  0  0  0  0  0  0  0  0  0
   -3.4837   -2.5509    0.1115 H   0  0  0  0  0  0  0  0  0  0  0  0
   -0.6813   -1.0243   -0.8661 H   0  0  0  0  0  0  0  0  0  0  0  0
   -1.3100   -2.1296    1.6169 H   0  0  0  0  0  0  0  0  0  0  0  0
  1  2  1  0
  2  3  2  0
  3  4  1  0
  4  5  2  0
  5  6  1  0
  6  7  1  0
  7  8  1  0
  8  9  1  0
  9 10  1  0
 10 11  1  0
  9 12  1  0
 12 13  1  0
 12 14  1  0
 14 15  1  0
  6 16  1  0
 16 17  2  0
 17 18  1  0
 18 19  1  0
 18 20  2  0
 20  2  1  0
 16  3  1  0
 14  7  1  0
  1 21  1  0
  1 22  1  0
  5 23  1  0
  7 24  1  0
  9 25  1  0
 10 26  1  0
 10 27  1  0
 11 28  1  0
 12 29  1  0
 13 30  1  0
 14 31  1  0
 15 32  1  0
M  END
>  <Original_Name>  (106) 
CHEMBL17859

>  <ROSHAMBO_ComboTanimoto>  (106) 
0.788

>  <ROSHAMBO_ShapeTanimoto>  (106) 
0.555

>  <ROSHAMBO_ColorTanimoto>  (106) 
0.232

>  <ROSHAMBO_FitTverskyCombo>  (106) 
1.193

>  <ROSHAMBO_FitTversky>  (106) 
0.817

>  <ROSHAMBO_FitColorTversky>  (106) 
0.376

>  <ROSHAMBO_RefTverskyCombo>  (106) 
1.012

>  <ROSHAMBO_RefTversky>  (106) 
0.635

>  <ROSHAMBO_RefColorTversky>  (106) 
0.378

>  <ROSHAMBO_Overlap>  (106) 
771.219

$$$$
CHEMBL190_0_66
     RDKit          3D

 21 22  0  0  0  0  0  0  0  0999 V2000
    1.4236   -3.0703   -0.5022 C   0  0  0  0  0  0  0  0  0  0  0  0
    1.2653   -1.6672   -0.1815 N   0  0  0  0  0  0  0  0  0  0  0  0
    2.3959   -0.9279   -0.0535 C   0  0  0  0  0  0  0  0  0  0  0  0
    2.2394    0.4187    0.2544 C   0  0  0  0  0  0  0  0  0  0  0  0
    3.5041    0.9094    0.3221 N   0  0  0  0  0  0  0  0  0  0  0  0
    4.3939   -0.0682    0.0723 C   0  0  0  0  0  0  0  0  0  0  0  0
    3.7120   -1.1892   -0.1566 N   0  0  0  0  0  0  0  0  0  0  0  0
    0.9864    0.9661    0.4197 C   0  0  0  0  0  0  0  0  0  0  0  0
    0.8564    2.1832    0.6976 O   0  0  0  0  0  0  0  0  0  0  0  0
   -0.1011    0.1866    0.2812 N   0  0  0  0  0  0  0  0  0  0  0  0
   -1.4255    0.7758    0.4583 C   0  0  0  0  0  0  0  0  0  0  0  0
    0.0421   -1.1300   -0.0195 C   0  0  0  0  0  0  0  0  0  0  0  0
   -0.9627   -1.8753   -0.1531 O   0  0  0  0  0  0  0  0  0  0  0  0
    1.4895   -3.6538    0.4279 H   0  0  0  0  0  0  0  0  0  0  0  0
    0.5583   -3.4122   -1.0891 H   0  0  0  0  0  0  0  0  0  0  0  0
    2.3433   -3.2107   -1.0891 H   0  0  0  0  0  0  0  0  0  0  0  0
    5.4886    0.0390    0.0595 H   0  0  0  0  0  0  0  0  0  0  0  0
    4.1248   -2.1068   -0.3767 H   0  0  0  0  0  0  0  0  0  0  0  0
   -1.6431    0.8726    1.5322 H   0  0  0  0  0  0  0  0  0  0  0  0
   -1.4503    1.7699   -0.0119 H   0  0  0  0  0  0  0  0  0  0  0  0
   -2.1805    0.1288   -0.0119 H   0  0  0  0  0  0  0  0  0  0  0  0
  1  2  1  0
  2  3  1  0
  3  4  2  0
  4  5  1  0
  5  6  2  0
  6  7  1  0
  4  8  1  0
  8  9  2  0
  8 10  1  0
 10 11  1  0
 10 12  1  0
 12 13  2  0
 12  2  1  0
  7  3  1  0
  1 14  1  0
  1 15  1  0
  1 16  1  0
  6 17  1  0
  7 18  1  0
 11 19  1  0
 11 20  1  0
 11 21  1  0
M  END
>  <Original_Name>  (107) 
CHEMBL190

>  <ROSHAMBO_ComboTanimoto>  (107) 
0.787

>  <ROSHAMBO_ShapeTanimoto>  (107) 
0.485

>  <ROSHAMBO_ColorTanimoto>  (107) 
0.303

>  <ROSHAMBO_FitTverskyCombo>  (107) 
1.574

>  <ROSHAMBO_FitTversky>  (107) 
0.91

>  <ROSHAMBO_FitColorTversky>  (107) 
0.663

>  <ROSHAMBO_RefTverskyCombo>  (107) 
0.867

>  <ROSHAMBO_RefTversky>  (107) 
0.509

>  <ROSHAMBO_RefColorTversky>  (107) 
0.358

>  <ROSHAMBO_Overlap>  (107) 
611.245

$$$$
CHEMBL259736_0_75
     RDKit          3D

 33 35  0  0  0  0  0  0  0  0999 V2000
   -0.6955    2.1142    0.1716 N   0  0  0  0  0  0  0  0  0  0  0  0
   -0.6763    1.0706    0.1308 C   0  0  0  0  0  0  0  0  0  0  0  0
   -0.6738   -0.4155    0.0801 C   0  0  0  0  0  0  0  0  0  0  0  0
    0.5210   -1.1072    0.1102 C   0  0  0  0  0  0  0  0  0  0  0  0
    1.8260   -0.4801    0.1127 C   0  0  0  0  0  0  0  0  0  0  0  0
    2.7433   -0.9344   -0.8072 C   0  0  0  0  0  0  0  0  0  0  0  0
    4.0544   -0.4831   -0.9145 C   0  0  0  0  0  0  0  0  0  0  0  0
    4.3978    0.4923   -0.0016 C   0  0  0  0  0  0  0  0  0  0  0  0
    3.4903    0.9655    0.9337 C   0  0  0  0  0  0  0  0  0  0  0  0
    2.2103    0.4822    0.9916 C   0  0  0  0  0  0  0  0  0  0  0  0
    0.4604   -2.4826    0.1105 N   0  0  0  0  0  0  0  0  0  0  0  0
   -0.6792   -3.1611    0.0835 C   0  0  0  0  0  0  0  0  0  0  0  0
   -0.7326   -4.6029    0.1084 N   0  0  0  0  0  0  0  0  0  0  0  0
   -1.8261   -2.4962    0.0513 N   0  0  0  0  0  0  0  0  0  0  0  0
   -1.8433   -1.1156    0.0485 C   0  0  0  0  0  0  0  0  0  0  0  0
   -3.1278   -0.4407   -0.0022 C   0  0  0  0  0  0  0  0  0  0  0  0
   -3.3700    0.6213   -0.8463 C   0  0  0  0  0  0  0  0  0  0  0  0
   -4.6148    1.2205   -0.8713 C   0  0  0  0  0  0  0  0  0  0  0  0
   -5.6551    0.7818   -0.0565 C   0  0  0  0  0  0  0  0  0  0  0  0
   -5.4111   -0.2705    0.7787 C   0  0  0  0  0  0  0  0  0  0  0  0
   -4.1735   -0.8571    0.7938 C   0  0  0  0  0  0  0  0  0  0  0  0
    2.4146   -1.7134   -1.5109 H   0  0  0  0  0  0  0  0  0  0  0  0
    4.7589   -0.8715   -1.6647 H   0  0  0  0  0  0  0  0  0  0  0  0
    5.4173    0.9051   -0.0161 H   0  0  0  0  0  0  0  0  0  0  0  0
    3.8048    1.7448    1.6436 H   0  0  0  0  0  0  0  0  0  0  0  0
    1.5024    0.8681    1.7399 H   0  0  0  0  0  0  0  0  0  0  0  0
   -1.6425   -5.0850    0.0857 H   0  0  0  0  0  0  0  0  0  0  0  0
    0.1392   -5.1499    0.1490 H   0  0  0  0  0  0  0  0  0  0  0  0
   -2.5695    0.9933   -1.5026 H   0  0  0  0  0  0  0  0  0  0  0  0
   -4.7884    2.0664   -1.5528 H   0  0  0  0  0  0  0  0  0  0  0  0
   -6.6418    1.2672   -0.0847 H   0  0  0  0  0  0  0  0  0  0  0  0
   -6.2070   -0.6464    1.4384 H   0  0  0  0  0  0  0  0  0  0  0  0
   -4.0054   -1.7037    1.4757 H   0  0  0  0  0  0  0  0  0  0  0  0
  1  2  3  0
  2  3  1  0
  3  4  2  0
  4  5  1  0
  5  6  2  0
  6  7  1  0
  7  8  2  0
  8  9  1  0
  9 10  2  0
  4 11  1  0
 11 12  2  0
 12 13  1  0
 12 14  1  0
 14 15  2  0
 15 16  1  0
 16 17  2  0
 17 18  1  0
 18 19  2  0
 19 20  1  0
 20 21  2  0
 15  3  1  0
 21 16  1  0
 10  5  1  0
  6 22  1  0
  7 23  1  0
  8 24  1  0
  9 25  1  0
 10 26  1  0
 13 27  1  0
 13 28  1  0
 17 29  1  0
 18 30  1  0
 19 31  1  0
 20 32  1  0
 21 33  1  0
M  END
>  <Original_Name>  (108) 
CHEMBL259736

>  <ROSHAMBO_ComboTanimoto>  (108) 
0.787

>  <ROSHAMBO_ShapeTanimoto>  (108) 
0.589

>  <ROSHAMBO_ColorTanimoto>  (108) 
0.198

>  <ROSHAMBO_FitTverskyCombo>  (108) 
1.252

>  <ROSHAMBO_FitTversky>  (108) 
0.815

>  <ROSHAMBO_FitColorTversky>  (108) 
0.437

>  <ROSHAMBO_RefTverskyCombo>  (108) 
0.945

>  <ROSHAMBO_RefTversky>  (108) 
0.679

>  <ROSHAMBO_RefColorTversky>  (108) 
0.266

>  <ROSHAMBO_Overlap>  (108) 
828.261

$$$$
CHEMBL408624_0_39
     RDKit          3D

 31 33  0  0  0  0  0  0  0  0999 V2000
   -0.5212    3.2976   -0.1537 C   0  0  0  0  0  0  0  0  0  0  0  0
   -0.1185    2.5471    1.0921 C   0  0  0  0  0  0  0  0  0  0  0  0
    0.4449    1.2074    0.7774 C   0  0  0  0  0  0  0  0  0  0  0  0
    1.7687    1.1404    0.5827 N   0  0  0  0  0  0  0  0  0  0  0  0
    2.2551   -0.0927    0.2976 C   0  0  0  0  0  0  0  0  0  0  0  0
    3.6561   -0.3394    0.0605 C   0  0  0  0  0  0  0  0  0  0  0  0
    4.6116    0.6535    0.1039 C   0  0  0  0  0  0  0  0  0  0  0  0
    5.9513    0.4267   -0.1212 C   0  0  0  0  0  0  0  0  0  0  0  0
    6.3538   -0.8577   -0.4037 C   0  0  0  0  0  0  0  0  0  0  0  0
    5.4014   -1.8480   -0.4472 C   0  0  0  0  0  0  0  0  0  0  0  0
    5.8353   -3.2442   -0.7538 C   0  0  0  0  0  0  0  0  0  0  0  0
    4.0927   -1.5715   -0.2176 N   0  0  0  0  0  0  0  0  0  0  0  0
    1.3899   -1.1910    0.2230 C   0  0  0  0  0  0  0  0  0  0  0  0
    1.7013   -2.8754   -0.1178 S   0  0  0  0  0  0  0  0  0  0  0  0
   -0.0523   -3.4112    0.0298 C   0  0  0  0  0  0  0  0  0  0  0  0
   -0.6889   -2.2360    0.3254 C   0  0  0  0  0  0  0  0  0  0  0  0
    0.0552   -1.1092    0.4218 C   0  0  0  0  0  0  0  0  0  0  0  0
   -0.3889    0.1760    0.7103 N   0  0  0  0  0  0  0  0  0  0  0  0
   -1.0238    4.2344    0.1289 H   0  0  0  0  0  0  0  0  0  0  0  0
    0.3748    3.5274   -0.7491 H   0  0  0  0  0  0  0  0  0  0  0  0
   -1.2081    2.6782   -0.7491 H   0  0  0  0  0  0  0  0  0  0  0  0
    0.6401    3.1340    1.6307 H   0  0  0  0  0  0  0  0  0  0  0  0
   -1.0189    2.4013    1.7070 H   0  0  0  0  0  0  0  0  0  0  0  0
    4.2872    1.6799    0.3301 H   0  0  0  0  0  0  0  0  0  0  0  0
    6.6792    1.2501   -0.0762 H   0  0  0  0  0  0  0  0  0  0  0  0
    7.4133   -1.0872   -0.5906 H   0  0  0  0  0  0  0  0  0  0  0  0
    6.0050   -3.7902    0.1859 H   0  0  0  0  0  0  0  0  0  0  0  0
    5.0526   -3.7518   -1.3366 H   0  0  0  0  0  0  0  0  0  0  0  0
    6.7679   -3.2187   -1.3366 H   0  0  0  0  0  0  0  0  0  0  0  0
   -0.4797   -4.4177   -0.0891 H   0  0  0  0  0  0  0  0  0  0  0  0
   -1.7775   -2.2079    0.4807 H   0  0  0  0  0  0  0  0  0  0  0  0
  1  2  1  0
  2  3  1  0
  3  4  2  0
  4  5  1  0
  5  6  1  0
  6  7  2  0
  7  8  1  0
  8  9  2  0
  9 10  1  0
 10 11  1  0
 10 12  2  0
  5 13  2  0
 13 14  1  0
 14 15  1  0
 15 16  2  0
 16 17  1  0
 17 18  2  0
 18  3  1  0
 12  6  1  0
 17 13  1  0
  1 19  1  0
  1 20  1  0
  1 21  1  0
  2 22  1  0
  2 23  1  0
  7 24  1  0
  8 25  1  0
  9 26  1  0
 11 27  1  0
 11 28  1  0
 11 29  1  0
 15 30  1  0
 16 31  1  0
M  END
>  <Original_Name>  (109) 
CHEMBL408624

>  <ROSHAMBO_ComboTanimoto>  (109) 
0.785

>  <ROSHAMBO_ShapeTanimoto>  (109) 
0.511

>  <ROSHAMBO_ColorTanimoto>  (109) 
0.274

>  <ROSHAMBO_FitTverskyCombo>  (109) 
1.403

>  <ROSHAMBO_FitTversky>  (109) 
0.814

>  <ROSHAMBO_FitColorTversky>  (109) 
0.59

>  <ROSHAMBO_RefTverskyCombo>  (109) 
0.917

>  <ROSHAMBO_RefTversky>  (109) 
0.578

>  <ROSHAMBO_RefColorTversky>  (109) 
0.339

>  <ROSHAMBO_Overlap>  (109) 
700.33

$$$$
CHEMBL508786_0_98
     RDKit          3D

 46 48  0  0  0  0  0  0  0  0999 V2000
   -4.5590   -0.0856   -0.1436 C   0  0  0  0  0  0  0  0  0  0  0  0
   -4.0707   -1.0205   -1.0242 O   0  0  0  0  0  0  0  0  0  0  0  0
   -2.7100   -1.1119   -0.9411 C   0  0  0  0  0  0  0  0  0  0  0  0
   -2.1505   -1.5217    0.3861 C   0  0  1  0  0  0  0  0  0  0  0  0
   -2.4627   -2.9783    0.7050 C   0  0  0  0  0  0  0  0  0  0  0  0
   -1.5048   -3.7036   -0.2093 C   0  0  0  0  0  0  0  0  0  0  0  0
   -0.2409   -2.8945   -0.0410 C   0  0  0  0  0  0  0  0  0  0  0  0
   -0.6887   -1.5610    0.2269 N   0  0  0  0  0  0  0  0  0  0  0  0
    0.1204   -0.4116    0.3329 C   0  0  0  0  0  0  0  0  0  0  0  0
   -0.3865    0.8436    0.6331 C   0  0  0  0  0  0  0  0  0  0  0  0
    0.4839    1.8989    0.7119 C   0  0  0  0  0  0  0  0  0  0  0  0
    0.0095    3.1966    1.0155 N   0  0  0  0  0  0  0  0  0  0  0  0
   -0.3956    4.0901   -0.0138 C   0  0  0  0  0  0  0  0  0  0  0  0
   -0.8885    5.4478    0.3575 C   0  0  0  0  0  0  0  0  0  0  0  0
   -0.3296    3.7164   -1.2143 O   0  0  0  0  0  0  0  0  0  0  0  0
    1.7924    1.7381    0.5072 N   0  0  0  0  0  0  0  0  0  0  0  0
    2.3096    0.5187    0.2123 C   0  0  0  0  0  0  0  0  0  0  0  0
    3.7459    0.3767   -0.0060 C   0  0  0  0  0  0  0  0  0  0  0  0
    4.7589    1.1758    0.4598 C   0  0  0  0  0  0  0  0  0  0  0  0
    5.9382    0.6320   -0.0139 C   0  0  0  0  0  0  0  0  0  0  0  0
    5.5948   -0.4651   -0.7413 C   0  0  0  0  0  0  0  0  0  0  0  0
    6.4689   -1.4227   -1.4747 C   0  0  0  0  0  0  0  0  0  0  0  0
    4.3011   -0.5662   -0.7025 O   0  0  0  0  0  0  0  0  0  0  0  0
    1.4601   -0.5152    0.1346 N   0  0  0  0  0  0  0  0  0  0  0  0
   -4.3816   -0.4252    0.8875 H   0  0  0  0  0  0  0  0  0  0  0  0
   -4.0470    0.8743   -0.3066 H   0  0  0  0  0  0  0  0  0  0  0  0
   -5.6392    0.0427   -0.3066 H   0  0  0  0  0  0  0  0  0  0  0  0
   -2.3779   -1.8495   -1.6865 H   0  0  0  0  0  0  0  0  0  0  0  0
   -2.3373   -0.0914   -1.1132 H   0  0  0  0  0  0  0  0  0  0  0  0
   -2.5524   -0.8353    1.1460 H   0  0  0  0  0  0  0  0  0  0  0  0
   -2.2615   -3.2096    1.7614 H   0  0  0  0  0  0  0  0  0  0  0  0
   -3.5174   -3.2523    0.5548 H   0  0  0  0  0  0  0  0  0  0  0  0
   -1.3582   -4.7458    0.1105 H   0  0  0  0  0  0  0  0  0  0  0  0
   -1.8519   -3.7746   -1.2506 H   0  0  0  0  0  0  0  0  0  0  0  0
    0.3552   -3.2786    0.7999 H   0  0  0  0  0  0  0  0  0  0  0  0
    0.4031   -2.9434   -0.9314 H   0  0  0  0  0  0  0  0  0  0  0  0
   -1.4633    0.9890    0.8040 H   0  0  0  0  0  0  0  0  0  0  0  0
   -0.0433    3.4994    1.9986 H   0  0  0  0  0  0  0  0  0  0  0  0
   -0.9216    5.5389    1.4533 H   0  0  0  0  0  0  0  0  0  0  0  0
   -0.2095    6.2095   -0.0534 H   0  0  0  0  0  0  0  0  0  0  0  0
   -1.8980    5.5965   -0.0534 H   0  0  0  0  0  0  0  0  0  0  0  0
    4.6534    2.0731    1.0872 H   0  0  0  0  0  0  0  0  0  0  0  0
    6.9553    1.0121    0.1628 H   0  0  0  0  0  0  0  0  0  0  0  0
    7.0283   -2.0355   -0.7525 H   0  0  0  0  0  0  0  0  0  0  0  0
    5.8486   -2.0754   -2.1066 H   0  0  0  0  0  0  0  0  0  0  0  0
    7.1753   -0.8644   -2.1066 H   0  0  0  0  0  0  0  0  0  0  0  0
  1  2  1  0
  2  3  1  0
  3  4  1  0
  4  5  1  0
  5  6  1  0
  6  7  1  0
  7  8  1  0
  8  9  1  0
  9 10  2  0
 10 11  1  0
 11 12  1  0
 12 13  1  0
 13 14  1  0
 13 15  2  0
 11 16  2  0
 16 17  1  0
 17 18  1  0
 18 19  2  0
 19 20  1  0
 20 21  2  0
 21 22  1  0
 21 23  1  0
 17 24  2  0
  8  4  1  0
 24  9  1  0
 23 18  1  0
  1 25  1  0
  1 26  1  0
  1 27  1  0
  3 28  1  0
  3 29  1  0
  4 30  1  1
  5 31  1  0
  5 32  1  0
  6 33  1  0
  6 34  1  0
  7 35  1  0
  7 36  1  0
 10 37  1  0
 12 38  1  0
 14 39  1  0
 14 40  1  0
 14 41  1  0
 19 42  1  0
 20 43  1  0
 22 44  1  0
 22 45  1  0
 22 46  1  0
M  END
>  <Original_Name>  (110) 
CHEMBL508786

>  <ROSHAMBO_ComboTanimoto>  (110) 
0.779

>  <ROSHAMBO_ShapeTanimoto>  (110) 
0.577

>  <ROSHAMBO_ColorTanimoto>  (110) 
0.203

>  <ROSHAMBO_FitTverskyCombo>  (110) 
1.189

>  <ROSHAMBO_FitTversky>  (110) 
0.762

>  <ROSHAMBO_FitColorTversky>  (110) 
0.427

>  <ROSHAMBO_RefTverskyCombo>  (110) 
0.982

>  <ROSHAMBO_RefTversky>  (110) 
0.704

>  <ROSHAMBO_RefColorTversky>  (110) 
0.278

>  <ROSHAMBO_Overlap>  (110) 
862.282

$$$$
CHEMBL17859_0_17
     RDKit          3D

 32 34  0  0  0  0  0  0  0  0999 V2000
    4.4150    1.6519    1.2092 N   0  0  0  0  0  0  0  0  0  0  0  0
    3.5962    0.6437    0.6523 C   0  0  0  0  0  0  0  0  0  0  0  0
    2.2217    0.8612    0.5033 C   0  0  0  0  0  0  0  0  0  0  0  0
    1.4402    1.9197    0.8034 N   0  0  0  0  0  0  0  0  0  0  0  0
    0.1753    1.6187    0.4601 C   0  0  0  0  0  0  0  0  0  0  0  0
    0.1482    0.3862   -0.0519 N   0  0  0  0  0  0  0  0  0  0  0  0
   -0.9851   -0.3527   -0.5526 C   0  0  0  0  0  0  0  0  0  0  0  0
   -2.3432    0.7828   -1.0430 S   0  0  0  0  0  0  0  0  0  0  0  0
   -3.6784   -0.3927   -0.6852 C   0  0  0  0  0  0  0  0  0  0  0  0
   -4.8921    0.3429   -0.1667 C   0  0  0  0  0  0  0  0  0  0  0  0
   -5.2771    1.2402   -1.1825 O   0  0  0  0  0  0  0  0  0  0  0  0
   -3.0786   -1.3428    0.2527 C   0  0  0  0  0  0  0  0  0  0  0  0
   -3.4092   -2.6525   -0.1699 O   0  0  0  0  0  0  0  0  0  0  0  0
   -1.6560   -1.2103    0.4380 C   0  0  0  0  0  0  0  0  0  0  0  0
   -1.3410   -0.7158    1.7251 O   0  0  0  0  0  0  0  0  0  0  0  0
    1.3979   -0.1041   -0.0369 C   0  0  0  0  0  0  0  0  0  0  0  0
    1.9534   -1.2666   -0.4190 N   0  0  0  0  0  0  0  0  0  0  0  0
    3.2740   -1.4809   -0.2781 C   0  0  0  0  0  0  0  0  0  0  0  0
    3.9119   -3.0433   -0.8105 Cl  0  0  0  0  0  0  0  0  0  0  0  0
    4.0823   -0.5444    0.2475 N   0  0  0  0  0  0  0  0  0  0  0  0
    5.4265    1.4917    1.3188 H   0  0  0  0  0  0  0  0  0  0  0  0
    4.0002    2.5468    1.5056 H   0  0  0  0  0  0  0  0  0  0  0  0
   -0.6951    2.2803    0.5815 H   0  0  0  0  0  0  0  0  0  0  0  0
   -0.5424   -0.9450   -1.3669 H   0  0  0  0  0  0  0  0  0  0  0  0
   -4.0604   -0.9344   -1.5631 H   0  0  0  0  0  0  0  0  0  0  0  0
   -5.7063   -0.3666    0.0429 H   0  0  0  0  0  0  0  0  0  0  0  0
   -4.6669    0.8736    0.7701 H   0  0  0  0  0  0  0  0  0  0  0  0
   -5.6325    2.0688   -0.7736 H   0  0  0  0  0  0  0  0  0  0  0  0
   -3.4992   -1.1177    1.2439 H   0  0  0  0  0  0  0  0  0  0  0  0
   -3.5545   -3.2281    0.6224 H   0  0  0  0  0  0  0  0  0  0  0  0
   -1.2791   -2.2352    0.3055 H   0  0  0  0  0  0  0  0  0  0  0  0
   -1.7239   -1.3169    2.4123 H   0  0  0  0  0  0  0  0  0  0  0  0
  1  2  1  0
  2  3  2  0
  3  4  1  0
  4  5  2  0
  5  6  1  0
  6  7  1  0
  7  8  1  0
  8  9  1  0
  9 10  1  0
 10 11  1  0
  9 12  1  0
 12 13  1  0
 12 14  1  0
 14 15  1  0
  6 16  1  0
 16 17  2  0
 17 18  1  0
 18 19  1  0
 18 20  2  0
 20  2  1  0
 16  3  1  0
 14  7  1  0
  1 21  1  0
  1 22  1  0
  5 23  1  0
  7 24  1  0
  9 25  1  0
 10 26  1  0
 10 27  1  0
 11 28  1  0
 12 29  1  0
 13 30  1  0
 14 31  1  0
 15 32  1  0
M  END
>  <Original_Name>  (111) 
CHEMBL17859

>  <ROSHAMBO_ComboTanimoto>  (111) 
0.777

>  <ROSHAMBO_ShapeTanimoto>  (111) 
0.555

>  <ROSHAMBO_ColorTanimoto>  (111) 
0.222

>  <ROSHAMBO_FitTverskyCombo>  (111) 
1.181

>  <ROSHAMBO_FitTversky>  (111) 
0.817

>  <ROSHAMBO_FitColorTversky>  (111) 
0.364

>  <ROSHAMBO_RefTverskyCombo>  (111) 
0.996

>  <ROSHAMBO_RefTversky>  (111) 
0.634

>  <ROSHAMBO_RefColorTversky>  (111) 
0.362

>  <ROSHAMBO_Overlap>  (111) 
770.329

$$$$
CHEMBL260719_0_35
     RDKit          3D

 26 29  0  0  0  0  0  0  0  0999 V2000
    7.2297    0.4834   -0.4087 C   0  0  0  0  0  0  0  0  0  0  0  0
    7.1248    1.8300   -0.2548 C   0  0  0  0  0  0  0  0  0  0  0  0
    5.2927    1.9371   -0.0236 S   0  0  0  0  0  0  0  0  0  0  0  0
    5.0135    0.2094   -0.1715 C   0  0  0  0  0  0  0  0  0  0  0  0
    3.6771   -0.4250   -0.0777 C   0  0  0  0  0  0  0  0  0  0  0  0
    3.5429   -1.7500   -0.2008 C   0  0  0  0  0  0  0  0  0  0  0  0
    4.6978   -3.0537   -0.4780 S   0  0  0  0  0  0  0  0  0  0  0  0
    3.5102   -4.4302   -0.4806 C   0  0  0  0  0  0  0  0  0  0  0  0
    2.3056   -3.7545   -0.2639 C   0  0  0  0  0  0  0  0  0  0  0  0
    2.3199   -2.4419   -0.1266 C   0  0  0  0  0  0  0  0  0  0  0  0
    1.2396   -1.6104    0.0904 N   0  0  0  0  0  0  0  0  0  0  0  0
    1.4169   -0.3002    0.2066 C   0  0  0  0  0  0  0  0  0  0  0  0
    0.2466    0.6176    0.4402 C   0  0  0  0  0  0  0  0  0  0  0  0
    0.3474    2.0358    0.0468 C   0  0  0  0  0  0  0  0  0  0  0  0
    0.5115    1.6448    1.5226 C   0  0  0  0  0  0  0  0  0  0  0  0
    2.6004    0.3443    0.1323 N   0  0  0  0  0  0  0  0  0  0  0  0
    6.1601   -0.2424   -0.3566 N   0  0  0  0  0  0  0  0  0  0  0  0
    8.2117    0.0167   -0.5756 H   0  0  0  0  0  0  0  0  0  0  0  0
    7.8944    2.6159   -0.2646 H   0  0  0  0  0  0  0  0  0  0  0  0
    3.6910   -5.5067   -0.6164 H   0  0  0  0  0  0  0  0  0  0  0  0
    1.3577   -4.3099   -0.2084 H   0  0  0  0  0  0  0  0  0  0  0  0
   -0.5124   -0.1482    0.2226 H   0  0  0  0  0  0  0  0  0  0  0  0
    1.2175    2.3853   -0.5283 H   0  0  0  0  0  0  0  0  0  0  0  0
   -0.2991    2.7359   -0.5025 H   0  0  0  0  0  0  0  0  0  0  0  0
    1.4978    1.7010    2.0062 H   0  0  0  0  0  0  0  0  0  0  0  0
    0.0382    1.9311    2.4734 H   0  0  0  0  0  0  0  0  0  0  0  0
  1  2  2  0
  2  3  1  0
  3  4  1  0
  4  5  1  0
  5  6  2  0
  6  7  1  0
  7  8  1  0
  8  9  2  0
  9 10  1  0
 10 11  2  0
 11 12  1  0
 12 13  1  0
 13 14  1  0
 14 15  1  0
 12 16  2  0
  4 17  2  0
 17  1  1  0
 16  5  1  0
 10  6  1  0
 15 13  1  0
  1 18  1  0
  2 19  1  0
  8 20  1  0
  9 21  1  0
 13 22  1  0
 14 23  1  0
 14 24  1  0
 15 25  1  0
 15 26  1  0
M  END
>  <Original_Name>  (112) 
CHEMBL260719

>  <ROSHAMBO_ComboTanimoto>  (112) 
0.777

>  <ROSHAMBO_ShapeTanimoto>  (112) 
0.49

>  <ROSHAMBO_ColorTanimoto>  (112) 
0.287

>  <ROSHAMBO_FitTverskyCombo>  (112) 
1.468

>  <ROSHAMBO_FitTversky>  (112) 
0.82

>  <ROSHAMBO_FitColorTversky>  (112) 
0.648

>  <ROSHAMBO_RefTverskyCombo>  (112) 
0.889

>  <ROSHAMBO_RefTversky>  (112) 
0.549

>  <ROSHAMBO_RefColorTversky>  (112) 
0.339

>  <ROSHAMBO_Overlap>  (112) 
663.77

$$$$
CHEMBL162666_0_57
     RDKit          3D

 55 56  0  0  0  0  0  0  0  0999 V2000
    6.1065    3.3146   -1.5827 C   0  0  0  0  0  0  0  0  0  0  0  0
    5.2261    4.3638   -0.9449 C   0  0  0  0  0  0  0  0  0  0  0  0
    3.8383    4.2611   -1.5531 C   0  0  0  0  0  0  0  0  0  0  0  0
    3.2314    3.0244   -1.3660 O   0  0  0  0  0  0  0  0  0  0  0  0
    2.9624    2.5185   -0.0668 C   0  0  0  0  0  0  0  0  0  0  0  0
    3.3137    3.2813    0.8529 O   0  0  0  0  0  0  0  0  0  0  0  0
    2.3328    1.2169    0.0691 C   0  0  0  0  0  0  0  0  0  0  0  0
    0.9867    1.0207    0.1131 C   0  0  0  0  0  0  0  0  0  0  0  0
    0.0254    2.1070    0.1585 C   0  0  0  0  0  0  0  0  0  0  0  0
   -0.3377    2.6679    1.4811 C   0  0  0  0  0  0  0  0  0  0  0  0
    0.7207    3.1838    2.1707 O   0  0  0  0  0  0  0  0  0  0  0  0
    0.4578   -0.2811    0.1539 C   0  0  0  0  0  0  0  0  0  0  0  0
   -0.9758   -0.5399    0.1953 C   0  0  0  0  0  0  0  0  0  0  0  0
   -1.5247   -0.6224    1.3203 O   0  0  0  0  0  0  0  0  0  0  0  0
   -1.9820   -0.7440   -1.2525 S   0  0  0  0  0  0  0  0  0  0  0  0
   -3.6889   -1.1486   -0.8430 C   0  0  0  0  0  0  0  0  0  0  0  0
   -4.4299   -0.0556   -0.1404 C   0  0  0  0  0  0  0  0  0  0  0  0
    1.3093   -1.3646    0.1514 C   0  0  0  0  0  0  0  0  0  0  0  0
    0.7333   -2.7652    0.2024 C   0  0  0  0  0  0  0  0  0  0  0  0
    0.2759   -3.0809    1.6012 C   0  0  0  0  0  0  0  0  0  0  0  0
    2.6235   -1.1661    0.1104 N   0  0  0  0  0  0  0  0  0  0  0  0
    3.1568    0.0927    0.0698 C   0  0  0  0  0  0  0  0  0  0  0  0
    4.6123    0.1476   -0.0077 C   0  0  0  0  0  0  0  0  0  0  0  0
    5.3827    0.8681    0.8569 C   0  0  0  0  0  0  0  0  0  0  0  0
    6.7743    0.9057    0.7147 C   0  0  0  0  0  0  0  0  0  0  0  0
    7.4277    0.2262   -0.2910 C   0  0  0  0  0  0  0  0  0  0  0  0
    6.6519   -0.5051   -1.1680 C   0  0  0  0  0  0  0  0  0  0  0  0
    5.2797   -0.5404   -1.0253 C   0  0  0  0  0  0  0  0  0  0  0  0
    6.6016    2.7246   -0.7973 H   0  0  0  0  0  0  0  0  0  0  0  0
    5.4915    2.6504   -2.2076 H   0  0  0  0  0  0  0  0  0  0  0  0
    6.8675    3.8050   -2.2076 H   0  0  0  0  0  0  0  0  0  0  0  0
    5.1697    4.1915    0.1401 H   0  0  0  0  0  0  0  0  0  0  0  0
    5.6432    5.3658   -1.1235 H   0  0  0  0  0  0  0  0  0  0  0  0
    3.2014    5.0322   -1.0951 H   0  0  0  0  0  0  0  0  0  0  0  0
    3.9542    4.3990   -2.6383 H   0  0  0  0  0  0  0  0  0  0  0  0
    0.4363    2.9311   -0.4432 H   0  0  0  0  0  0  0  0  0  0  0  0
   -0.9084    1.6594   -0.2126 H   0  0  0  0  0  0  0  0  0  0  0  0
   -1.0750    3.4696    1.3270 H   0  0  0  0  0  0  0  0  0  0  0  0
   -0.7372    1.8377    2.0820 H   0  0  0  0  0  0  0  0  0  0  0  0
    0.5527    3.1019    3.1429 H   0  0  0  0  0  0  0  0  0  0  0  0
   -4.2214   -1.3804   -1.7771 H   0  0  0  0  0  0  0  0  0  0  0  0
   -3.6522   -2.0007   -0.1484 H   0  0  0  0  0  0  0  0  0  0  0  0
   -4.3382   -0.1908    0.9474 H   0  0  0  0  0  0  0  0  0  0  0  0
   -4.0049    0.9180   -0.4260 H   0  0  0  0  0  0  0  0  0  0  0  0
   -5.4917   -0.0901   -0.4260 H   0  0  0  0  0  0  0  0  0  0  0  0
   -0.1227   -2.8327   -0.4851 H   0  0  0  0  0  0  0  0  0  0  0  0
    1.5083   -3.4864   -0.0964 H   0  0  0  0  0  0  0  0  0  0  0  0
    0.9577   -2.6103    2.3248 H   0  0  0  0  0  0  0  0  0  0  0  0
   -0.7423   -2.6924    1.7505 H   0  0  0  0  0  0  0  0  0  0  0  0
    0.2781   -4.1707    1.7505 H   0  0  0  0  0  0  0  0  0  0  0  0
    4.9046    1.4262    1.6754 H   0  0  0  0  0  0  0  0  0  0  0  0
    7.3662    1.4969    1.4290 H   0  0  0  0  0  0  0  0  0  0  0  0
    8.5224    0.2650   -0.3907 H   0  0  0  0  0  0  0  0  0  0  0  0
    7.1307   -1.0633   -1.9860 H   0  0  0  0  0  0  0  0  0  0  0  0
    4.6886   -1.1324   -1.7395 H   0  0  0  0  0  0  0  0  0  0  0  0
  1  2  1  0
  2  3  1  0
  3  4  1  0
  4  5  1  0
  5  6  2  0
  5  7  1  0
  7  8  2  0
  8  9  1  0
  9 10  1  0
 10 11  1  0
  8 12  1  0
 12 13  1  0
 13 14  2  0
 13 15  1  0
 15 16  1  0
 16 17  1  0
 12 18  2  0
 18 19  1  0
 19 20  1  0
 18 21  1  0
 21 22  2  0
 22 23  1  0
 23 24  2  0
 24 25  1  0
 25 26  2  0
 26 27  1  0
 27 28  2  0
 22  7  1  0
 28 23  1  0
  1 29  1  0
  1 30  1  0
  1 31  1  0
  2 32  1  0
  2 33  1  0
  3 34  1  0
  3 35  1  0
  9 36  1  0
  9 37  1  0
 10 38  1  0
 10 39  1  0
 11 40  1  0
 16 41  1  0
 16 42  1  0
 17 43  1  0
 17 44  1  0
 17 45  1  0
 19 46  1  0
 19 47  1  0
 20 48  1  0
 20 49  1  0
 20 50  1  0
 24 51  1  0
 25 52  1  0
 26 53  1  0
 27 54  1  0
 28 55  1  0
M  END
>  <Original_Name>  (113) 
CHEMBL162666

>  <ROSHAMBO_ComboTanimoto>  (113) 
0.774

>  <ROSHAMBO_ShapeTanimoto>  (113) 
0.549

>  <ROSHAMBO_ColorTanimoto>  (113) 
0.225

>  <ROSHAMBO_FitTverskyCombo>  (113) 
1.19

>  <ROSHAMBO_FitTversky>  (113) 
0.704

>  <ROSHAMBO_FitColorTversky>  (113) 
0.486

>  <ROSHAMBO_RefTverskyCombo>  (113) 
1.009

>  <ROSHAMBO_RefTversky>  (113) 
0.714

>  <ROSHAMBO_RefColorTversky>  (113) 
0.295

>  <ROSHAMBO_Overlap>  (113) 
879.816

$$$$
CHEMBL608029_0_57
     RDKit          3D

 53 56  0  0  0  0  0  0  0  0999 V2000
   -8.0129    0.7566    1.1900 C   0  0  0  0  0  0  0  0  0  0  0  0
   -7.0289    0.6747    0.0610 C   0  0  0  0  0  0  0  0  0  0  0  0
   -6.3608    2.0081   -0.1773 C   0  0  0  0  0  0  0  0  0  0  0  0
   -5.3769    1.9314   -1.3266 C   0  0  0  0  0  0  0  0  0  0  0  0
   -4.3221    0.9298   -1.0353 C   0  0  0  0  0  0  0  0  0  0  0  0
   -3.5080    0.1431   -0.7908 C   0  0  0  0  0  0  0  0  0  0  0  0
   -2.4539   -0.8514   -0.4972 C   0  0  0  0  0  0  0  0  0  0  0  0
   -2.8291   -2.1412   -0.4971 N   0  0  0  0  0  0  0  0  0  0  0  0
   -1.9747   -3.1442   -0.2375 C   0  0  0  0  0  0  0  0  0  0  0  0
   -2.3200   -4.5122   -0.2326 N   0  0  0  0  0  0  0  0  0  0  0  0
   -0.6520   -2.7752    0.0374 C   0  0  0  0  0  0  0  0  0  0  0  0
    0.4460   -3.4944    0.3345 N   0  0  0  0  0  0  0  0  0  0  0  0
    1.4571   -2.6462    0.5084 C   0  0  0  0  0  0  0  0  0  0  0  0
    1.0295   -1.3913    0.3280 N   0  0  0  0  0  0  0  0  0  0  0  0
    1.8657   -0.2213    0.4319 C   0  0  0  0  0  0  0  0  0  0  0  0
    2.2181    0.3089   -0.7784 O   0  0  0  0  0  0  0  0  0  0  0  0
    2.4629    1.6557   -0.6093 C   0  0  2  0  0  0  0  0  0  0  0  0
    3.8467    1.9825   -0.1968 C   0  0  0  0  0  0  0  0  0  0  0  0
    4.1374    3.1684    0.1247 O   0  0  0  0  0  0  0  0  0  0  0  0
    4.8785    1.0246   -0.1435 N   0  0  0  0  0  0  0  0  0  0  0  0
    6.2561    1.3308    0.2761 C   0  0  0  0  0  0  0  0  0  0  0  0
    7.1034    0.1948    0.7088 C   0  0  0  0  0  0  0  0  0  0  0  0
    7.3907    0.7951   -0.6016 C   0  0  0  0  0  0  0  0  0  0  0  0
    1.4674    2.0846    0.4356 C   0  0  1  0  0  0  0  0  0  0  0  0
    0.2750    2.4314   -0.2012 O   0  0  0  0  0  0  0  0  0  0  0  0
    1.3390    0.8644    1.3069 C   0  0  1  0  0  0  0  0  0  0  0  0
    0.0694    0.6814    1.8013 O   0  0  0  0  0  0  0  0  0  0  0  0
   -0.2815   -1.4592    0.0348 C   0  0  0  0  0  0  0  0  0  0  0  0
   -1.1951   -0.4648   -0.2373 N   0  0  0  0  0  0  0  0  0  0  0  0
   -7.4755    0.7119    2.1487 H   0  0  0  0  0  0  0  0  0  0  0  0
   -8.5679    1.7041    1.1246 H   0  0  0  0  0  0  0  0  0  0  0  0
   -8.7169   -0.0860    1.1246 H   0  0  0  0  0  0  0  0  0  0  0  0
   -6.2606   -0.0728    0.3079 H   0  0  0  0  0  0  0  0  0  0  0  0
   -7.5695    0.3870   -0.8528 H   0  0  0  0  0  0  0  0  0  0  0  0
   -7.1305    2.7577   -0.4135 H   0  0  0  0  0  0  0  0  0  0  0  0
   -5.8112    2.2895    0.7331 H   0  0  0  0  0  0  0  0  0  0  0  0
   -5.9112    1.6397   -2.2428 H   0  0  0  0  0  0  0  0  0  0  0  0
   -4.9071    2.9168   -1.4617 H   0  0  0  0  0  0  0  0  0  0  0  0
   -1.6047   -5.2232   -0.0233 H   0  0  0  0  0  0  0  0  0  0  0  0
   -3.2874   -4.8000   -0.4384 H   0  0  0  0  0  0  0  0  0  0  0  0
    2.4882   -2.9335    0.7620 H   0  0  0  0  0  0  0  0  0  0  0  0
    2.7629   -0.6258    0.9232 H   0  0  0  0  0  0  0  0  0  0  0  0
    2.3548    2.1861   -1.5669 H   0  0  0  0  0  0  0  0  0  0  0  0
    4.6566    0.0556   -0.4132 H   0  0  0  0  0  0  0  0  0  0  0  0
    5.9774    2.3092    0.6943 H   0  0  0  0  0  0  0  0  0  0  0  0
    7.8146    0.3324    1.5367 H   0  0  0  0  0  0  0  0  0  0  0  0
    6.8906   -0.8296    1.0484 H   0  0  0  0  0  0  0  0  0  0  0  0
    8.3040    1.3905   -0.7481 H   0  0  0  0  0  0  0  0  0  0  0  0
    7.4731    0.4212   -1.6328 H   0  0  0  0  0  0  0  0  0  0  0  0
    1.7567    2.9645    1.0290 H   0  0  0  0  0  0  0  0  0  0  0  0
   -0.4160    2.6324    0.4787 H   0  0  0  0  0  0  0  0  0  0  0  0
    1.9050    0.9235    2.2483 H   0  0  0  0  0  0  0  0  0  0  0  0
    0.0969    0.6854    2.7909 H   0  0  0  0  0  0  0  0  0  0  0  0
  1  2  1  0
  2  3  1  0
  3  4  1  0
  4  5  1  0
  5  6  3  0
  6  7  1  0
  7  8  2  0
  8  9  1  0
  9 10  1  0
  9 11  2  0
 11 12  1  0
 12 13  2  0
 13 14  1  0
 14 15  1  0
 15 16  1  0
 16 17  1  0
 17 18  1  0
 18 19  2  0
 18 20  1  0
 20 21  1  0
 21 22  1  0
 22 23  1  0
 17 24  1  0
 24 25  1  0
 24 26  1  0
 26 27  1  0
 14 28  1  0
 28 29  2  0
 29  7  1  0
 28 11  1  0
 26 15  1  0
 23 21  1  0
  1 30  1  0
  1 31  1  0
  1 32  1  0
  2 33  1  0
  2 34  1  0
  3 35  1  0
  3 36  1  0
  4 37  1  0
  4 38  1  0
 10 39  1  0
 10 40  1  0
 13 41  1  0
 15 42  1  0
 17 43  1  6
 20 44  1  0
 21 45  1  0
 22 46  1  0
 22 47  1  0
 23 48  1  0
 23 49  1  0
 24 50  1  1
 25 51  1  0
 26 52  1  1
 27 53  1  0
M  END
>  <Original_Name>  (114) 
CHEMBL608029

>  <ROSHAMBO_ComboTanimoto>  (114) 
0.772

>  <ROSHAMBO_ShapeTanimoto>  (114) 
0.611

>  <ROSHAMBO_ColorTanimoto>  (114) 
0.161

>  <ROSHAMBO_FitTverskyCombo>  (114) 
0.989

>  <ROSHAMBO_FitTversky>  (114) 
0.725

>  <ROSHAMBO_FitColorTversky>  (114) 
0.264

>  <ROSHAMBO_RefTverskyCombo>  (114) 
1.088

>  <ROSHAMBO_RefTversky>  (114) 
0.796

>  <ROSHAMBO_RefColorTversky>  (114) 
0.291

>  <ROSHAMBO_Overlap>  (114) 
985.113

$$$$
CHEMBL17103_0_57
     RDKit          3D

 69 73  0  0  0  0  0  0  0  0999 V2000
    9.0051    5.0593   -1.8598 O   0  0  0  0  0  1  0  0  0  0  0  0
    8.0302    4.0675   -1.4471 C   0  0  0  0  0  0  0  0  0  0  0  0
    6.8639    4.4822   -1.5343 O   0  0  0  0  0  0  0  0  0  0  0  0
    8.5726    2.8253   -1.0257 C   0  0  0  0  0  0  0  0  0  0  0  0
    8.0598    1.7529   -0.5752 C   0  0  0  0  0  0  0  0  0  0  0  0
    6.7197    1.3611   -0.2954 C   0  0  0  0  0  0  0  0  0  0  0  0
    5.7034    2.2318   -0.0331 C   0  0  0  0  0  0  0  0  0  0  0  0
    4.3899    1.7556    0.1276 C   0  0  0  0  0  0  0  0  0  0  0  0
    4.0797    0.4214    0.0324 C   0  0  0  0  0  0  0  0  0  0  0  0
    5.1260   -0.4212   -0.2288 C   0  0  0  0  0  0  0  0  0  0  0  0
    6.4158   -0.0097   -0.3940 C   0  0  0  0  0  0  0  0  0  0  0  0
    2.7108   -0.0766    0.1997 C   0  0  0  0  0  0  0  0  0  0  0  0
    1.6378    0.6894    0.4595 N   0  0  0  0  0  0  0  0  0  0  0  0
    0.5348   -0.1100    0.5503 C   0  0  0  0  0  0  0  0  0  0  0  0
    0.9971   -1.3855    0.3333 C   0  0  0  0  0  0  0  0  0  0  0  0
    2.3449   -1.3631    0.1163 N   0  0  0  0  0  0  0  0  0  0  0  0
    0.0917   -2.3746    0.3711 N   0  0  0  0  0  0  0  0  0  0  0  0
    0.5537   -3.7262    0.1526 C   0  0  0  0  0  0  0  0  0  0  0  0
    0.5835   -4.1874   -1.2511 C   0  0  0  0  0  0  0  0  0  0  0  0
   -0.6908   -4.2034   -2.0015 C   0  0  0  0  0  0  0  0  0  0  0  0
   -1.5825   -5.3862   -1.6968 C   0  0  0  0  0  0  0  0  0  0  0  0
   -0.7769   -6.6217   -2.1265 C   0  0  0  0  0  0  0  0  0  0  0  0
    0.3753   -6.6980   -1.1250 C   0  0  0  0  0  0  0  0  0  0  0  0
    1.2719   -5.5234   -1.3123 C   0  0  0  0  0  0  0  0  0  0  0  0
   -1.2009   -2.1186    0.6103 C   0  0  0  0  0  0  0  0  0  0  0  0
   -2.0476   -3.0798    0.6458 O   0  0  0  0  0  0  0  0  0  0  0  0
   -1.7026   -0.8890    0.8277 N   0  0  0  0  0  0  0  0  0  0  0  0
   -3.1015   -0.5978    1.0672 C   0  0  0  0  0  0  0  0  0  0  0  0
   -3.9064   -0.2421   -0.1225 C   0  0  0  0  0  0  0  0  0  0  0  0
   -5.3278    0.0221    0.3753 C   0  0  0  0  0  0  0  0  0  0  0  0
   -6.2817    0.2465   -0.7496 C   0  0  0  0  0  0  0  0  0  0  0  0
   -5.5930    0.1607   -2.0839 C   0  0  0  0  0  0  0  0  0  0  0  0
   -4.9532   -1.1932   -2.2042 C   0  0  0  0  0  0  0  0  0  0  0  0
   -3.9981   -1.4123   -1.0665 C   0  0  0  0  0  0  0  0  0  0  0  0
   -0.7953    0.1365    0.7939 C   0  0  0  0  0  0  0  0  0  0  0  0
   -1.1609    1.3081    0.9834 O   0  0  0  0  0  0  0  0  0  0  0  0
    9.6688    2.7813   -1.1061 H   0  0  0  0  0  0  0  0  0  0  0  0
    8.8007    0.9696   -0.3575 H   0  0  0  0  0  0  0  0  0  0  0  0
    5.9113    3.3085    0.0530 H   0  0  0  0  0  0  0  0  0  0  0  0
    3.5847    2.4755    0.3363 H   0  0  0  0  0  0  0  0  0  0  0  0
    4.9135   -1.4973   -0.3105 H   0  0  0  0  0  0  0  0  0  0  0  0
    7.2102   -0.7415   -0.6022 H   0  0  0  0  0  0  0  0  0  0  0  0
    2.9558   -2.1705   -0.0728 H   0  0  0  0  0  0  0  0  0  0  0  0
    1.5762   -3.7999    0.5517 H   0  0  0  0  0  0  0  0  0  0  0  0
   -0.1781   -4.3727    0.6591 H   0  0  0  0  0  0  0  0  0  0  0  0
    1.1468   -3.4078   -1.7848 H   0  0  0  0  0  0  0  0  0  0  0  0
   -1.2441   -3.2842   -1.7587 H   0  0  0  0  0  0  0  0  0  0  0  0
   -0.4260   -4.2769   -3.0666 H   0  0  0  0  0  0  0  0  0  0  0  0
   -1.8109   -5.4298   -0.6217 H   0  0  0  0  0  0  0  0  0  0  0  0
   -2.5456   -5.3206   -2.2242 H   0  0  0  0  0  0  0  0  0  0  0  0
   -1.3981   -7.5280   -2.0736 H   0  0  0  0  0  0  0  0  0  0  0  0
   -0.4226   -6.5482   -3.1653 H   0  0  0  0  0  0  0  0  0  0  0  0
   -0.0273   -6.6929   -0.1013 H   0  0  0  0  0  0  0  0  0  0  0  0
    0.9445   -7.6248   -1.2895 H   0  0  0  0  0  0  0  0  0  0  0  0
    2.0389   -5.5494   -0.5242 H   0  0  0  0  0  0  0  0  0  0  0  0
    1.6883   -5.6106   -2.3267 H   0  0  0  0  0  0  0  0  0  0  0  0
   -3.5560   -1.4880    1.5263 H   0  0  0  0  0  0  0  0  0  0  0  0
   -3.1112    0.2963    1.7079 H   0  0  0  0  0  0  0  0  0  0  0  0
   -3.4514    0.6184   -0.6348 H   0  0  0  0  0  0  0  0  0  0  0  0
   -5.6663   -0.8460    0.9601 H   0  0  0  0  0  0  0  0  0  0  0  0
   -5.3082    0.9335    0.9909 H   0  0  0  0  0  0  0  0  0  0  0  0
   -7.0717   -0.5177   -0.7057 H   0  0  0  0  0  0  0  0  0  0  0  0
   -6.7059    1.2560   -0.6453 H   0  0  0  0  0  0  0  0  0  0  0  0
   -6.3286    0.2964   -2.8904 H   0  0  0  0  0  0  0  0  0  0  0  0
   -4.8283    0.9473   -2.1644 H   0  0  0  0  0  0  0  0  0  0  0  0
   -5.7333   -1.9684   -2.1795 H   0  0  0  0  0  0  0  0  0  0  0  0
   -4.4020   -1.2492   -3.1545 H   0  0  0  0  0  0  0  0  0  0  0  0
   -4.3311   -2.2929   -0.4975 H   0  0  0  0  0  0  0  0  0  0  0  0
   -2.9993   -1.5515   -1.5059 H   0  0  0  0  0  0  0  0  0  0  0  0
  1  2  1  0
  2  3  2  0
  2  4  1  0
  4  5  2  3
  5  6  1  0
  6  7  2  0
  7  8  1  0
  8  9  2  0
  9 10  1  0
 10 11  2  0
  9 12  1  0
 12 13  2  0
 13 14  1  0
 14 15  2  0
 15 16  1  0
 15 17  1  0
 17 18  1  0
 18 19  1  0
 19 20  1  0
 20 21  1  0
 21 22  1  0
 22 23  1  0
 23 24  1  0
 17 25  1  0
 25 26  2  0
 25 27  1  0
 27 28  1  0
 28 29  1  0
 29 30  1  0
 30 31  1  0
 31 32  1  0
 32 33  1  0
 33 34  1  0
 27 35  1  0
 35 36  2  0
 11  6  1  0
 16 12  1  0
 24 19  1  0
 34 29  1  0
 35 14  1  0
  4 37  1  0
  5 38  1  0
  7 39  1  0
  8 40  1  0
 10 41  1  0
 11 42  1  0
 16 43  1  0
 18 44  1  0
 18 45  1  0
 19 46  1  0
 20 47  1  0
 20 48  1  0
 21 49  1  0
 21 50  1  0
 22 51  1  0
 22 52  1  0
 23 53  1  0
 23 54  1  0
 24 55  1  0
 24 56  1  0
 28 57  1  0
 28 58  1  0
 29 59  1  0
 30 60  1  0
 30 61  1  0
 31 62  1  0
 31 63  1  0
 32 64  1  0
 32 65  1  0
 33 66  1  0
 33 67  1  0
 34 68  1  0
 34 69  1  0
M  CHG  1   1  -1
M  END
>  <Original_Name>  (115) 
CHEMBL17103

>  <ROSHAMBO_ComboTanimoto>  (115) 
0.772

>  <ROSHAMBO_ShapeTanimoto>  (115) 
0.542

>  <ROSHAMBO_ColorTanimoto>  (115) 
0.23

>  <ROSHAMBO_FitTverskyCombo>  (115) 
0.994

>  <ROSHAMBO_FitTversky>  (115) 
0.613

>  <ROSHAMBO_FitColorTversky>  (115) 
0.381

>  <ROSHAMBO_RefTverskyCombo>  (115) 
1.19

>  <ROSHAMBO_RefTversky>  (115) 
0.824

>  <ROSHAMBO_RefColorTversky>  (115) 
0.366

>  <ROSHAMBO_Overlap>  (115) 
1033.819

$$$$
CHEMBL17859_0_65
     RDKit          3D

 32 34  0  0  0  0  0  0  0  0999 V2000
    3.2350   -2.2109   -0.0169 N   0  0  0  0  0  0  0  0  0  0  0  0
    2.3187   -1.1506    0.1674 C   0  0  0  0  0  0  0  0  0  0  0  0
    0.9686   -1.4251    0.2490 C   0  0  0  0  0  0  0  0  0  0  0  0
    0.2355   -2.5612    0.1913 N   0  0  0  0  0  0  0  0  0  0  0  0
   -1.0682   -2.2544    0.3292 C   0  0  0  0  0  0  0  0  0  0  0  0
   -1.1796   -0.9302    0.4751 N   0  0  0  0  0  0  0  0  0  0  0  0
   -2.3601   -0.1148    0.6556 C   0  0  0  0  0  0  0  0  0  0  0  0
   -3.5773   -0.9692    1.7276 S   0  0  0  0  0  0  0  0  0  0  0  0
   -5.0567   -0.3888    0.8147 C   0  0  0  0  0  0  0  0  0  0  0  0
   -5.9780   -1.5681    0.6497 C   0  0  0  0  0  0  0  0  0  0  0  0
   -7.1358   -1.2672   -0.0245 O   0  0  0  0  0  0  0  0  0  0  0  0
   -4.5380    0.1862   -0.4276 C   0  0  0  0  0  0  0  0  0  0  0  0
   -5.2052   -0.4239   -1.5159 O   0  0  0  0  0  0  0  0  0  0  0  0
   -3.1092    0.0557   -0.6040 C   0  0  0  0  0  0  0  0  0  0  0  0
   -2.7889   -1.0160   -1.4602 O   0  0  0  0  0  0  0  0  0  0  0  0
    0.0739   -0.4029    0.4275 C   0  0  0  0  0  0  0  0  0  0  0  0
    0.5327    0.8718    0.5219 N   0  0  0  0  0  0  0  0  0  0  0  0
    1.8426    1.1548    0.4444 C   0  0  0  0  0  0  0  0  0  0  0  0
    2.3788    2.8253    0.5734 Cl  0  0  0  0  0  0  0  0  0  0  0  0
    2.6982    0.1388    0.2697 N   0  0  0  0  0  0  0  0  0  0  0  0
    4.2442   -2.0146   -0.0788 H   0  0  0  0  0  0  0  0  0  0  0  0
    2.8934   -3.1800   -0.0892 H   0  0  0  0  0  0  0  0  0  0  0  0
   -1.9015   -2.9724    0.3229 H   0  0  0  0  0  0  0  0  0  0  0  0
   -1.9904    0.8367    1.0654 H   0  0  0  0  0  0  0  0  0  0  0  0
   -5.6571    0.3837    1.3174 H   0  0  0  0  0  0  0  0  0  0  0  0
   -5.4441   -2.3521    0.0926 H   0  0  0  0  0  0  0  0  0  0  0  0
   -6.2669   -1.8974    1.6588 H   0  0  0  0  0  0  0  0  0  0  0  0
   -7.8576   -1.0795    0.6266 H   0  0  0  0  0  0  0  0  0  0  0  0
   -4.7304    1.2680   -0.3772 H   0  0  0  0  0  0  0  0  0  0  0  0
   -5.8907   -1.0507   -1.1733 H   0  0  0  0  0  0  0  0  0  0  0  0
   -2.8011    1.0121   -1.0515 H   0  0  0  0  0  0  0  0  0  0  0  0
   -2.5514   -1.8106   -0.9197 H   0  0  0  0  0  0  0  0  0  0  0  0
  1  2  1  0
  2  3  2  0
  3  4  1  0
  4  5  2  0
  5  6  1  0
  6  7  1  0
  7  8  1  0
  8  9  1  0
  9 10  1  0
 10 11  1  0
  9 12  1  0
 12 13  1  0
 12 14  1  0
 14 15  1  0
  6 16  1  0
 16 17  2  0
 17 18  1  0
 18 19  1  0
 18 20  2  0
 20  2  1  0
 16  3  1  0
 14  7  1  0
  1 21  1  0
  1 22  1  0
  5 23  1  0
  7 24  1  0
  9 25  1  0
 10 26  1  0
 10 27  1  0
 11 28  1  0
 12 29  1  0
 13 30  1  0
 14 31  1  0
 15 32  1  0
M  END
>  <Original_Name>  (116) 
CHEMBL17859

>  <ROSHAMBO_ComboTanimoto>  (116) 
0.771

>  <ROSHAMBO_ShapeTanimoto>  (116) 
0.544

>  <ROSHAMBO_ColorTanimoto>  (116) 
0.227

>  <ROSHAMBO_FitTverskyCombo>  (116) 
1.171

>  <ROSHAMBO_FitTversky>  (116) 
0.803

>  <ROSHAMBO_FitColorTversky>  (116) 
0.368

>  <ROSHAMBO_RefTverskyCombo>  (116) 
1.0

>  <ROSHAMBO_RefTversky>  (116) 
0.628

>  <ROSHAMBO_RefColorTversky>  (116) 
0.372

>  <ROSHAMBO_Overlap>  (116) 
763.579

$$$$
CHEMBL1221457_0_8
     RDKit          3D

 37 40  0  0  0  0  0  0  0  0999 V2000
    6.0444    1.2288   -0.0152 C   0  0  0  0  0  0  0  0  0  0  0  0
    4.7526    0.5038    0.0290 C   0  0  0  0  0  0  0  0  0  0  0  0
    4.6279   -0.8341    0.1155 N   0  0  0  0  0  0  0  0  0  0  0  0
    3.3594   -1.1489    0.1333 O   0  0  0  0  0  0  0  0  0  0  0  0
    2.6271   -0.0686    0.0619 C   0  0  0  0  0  0  0  0  0  0  0  0
    1.1916   -0.0905    0.0605 C   0  0  0  0  0  0  0  0  0  0  0  0
    0.2257   -1.0182    0.1184 C   0  0  0  0  0  0  0  0  0  0  0  0
    0.5666   -2.4699    0.2118 C   0  0  0  0  0  0  0  0  0  0  0  0
    1.2550   -2.9502    1.3048 C   0  0  0  0  0  0  0  0  0  0  0  0
    1.5717   -4.3085    1.3856 C   0  0  0  0  0  0  0  0  0  0  0  0
    1.2060   -5.1788    0.3876 C   0  0  0  0  0  0  0  0  0  0  0  0
    0.5179   -4.7012   -0.7056 C   0  0  0  0  0  0  0  0  0  0  0  0
    0.2149   -3.3640   -0.7690 C   0  0  0  0  0  0  0  0  0  0  0  0
   -1.0239   -0.6283    0.0914 N   0  0  0  0  0  0  0  0  0  0  0  0
   -1.3960    0.5395    0.0159 C   0  0  0  0  0  0  0  0  0  0  0  0
   -2.6193    1.2804   -0.0333 N   0  0  0  0  0  0  0  0  0  0  0  0
   -3.8290    0.5631    0.0110 C   0  0  0  0  0  0  0  0  0  0  0  0
   -3.8425   -0.6976    0.0916 O   0  0  0  0  0  0  0  0  0  0  0  0
   -5.1673    1.2471   -0.0345 C   0  0  0  0  0  0  0  0  0  0  0  0
   -6.3013    0.5417    0.6215 C   0  0  0  0  0  0  0  0  0  0  0  0
   -6.1962    0.5262   -0.8541 C   0  0  0  0  0  0  0  0  0  0  0  0
    0.1560    1.4280   -0.0386 S   0  0  0  0  0  0  0  0  0  0  0  0
    3.4891    0.9553   -0.0028 N   0  0  0  0  0  0  0  0  0  0  0  0
    6.3910    1.4233    1.0105 H   0  0  0  0  0  0  0  0  0  0  0  0
    6.7901    0.6174   -0.5444 H   0  0  0  0  0  0  0  0  0  0  0  0
    5.9110    2.1838   -0.5444 H   0  0  0  0  0  0  0  0  0  0  0  0
    1.5546   -2.2654    2.1119 H   0  0  0  0  0  0  0  0  0  0  0  0
    2.1214   -4.6863    2.2603 H   0  0  0  0  0  0  0  0  0  0  0  0
    1.4602   -6.2465    0.4610 H   0  0  0  0  0  0  0  0  0  0  0  0
    0.2157   -5.3811   -1.5158 H   0  0  0  0  0  0  0  0  0  0  0  0
   -0.3349   -2.9916   -1.6459 H   0  0  0  0  0  0  0  0  0  0  0  0
   -2.6144    2.3082   -0.0992 H   0  0  0  0  0  0  0  0  0  0  0  0
   -4.7630    2.2686    0.0201 H   0  0  0  0  0  0  0  0  0  0  0  0
   -6.1163   -0.3794    1.1938 H   0  0  0  0  0  0  0  0  0  0  0  0
   -7.0830    0.8334    1.3383 H   0  0  0  0  0  0  0  0  0  0  0  0
   -5.9299   -0.4043   -1.3770 H   0  0  0  0  0  0  0  0  0  0  0  0
   -6.8624    0.8019   -1.6848 H   0  0  0  0  0  0  0  0  0  0  0  0
  1  2  1  0
  2  3  2  0
  3  4  1  0
  4  5  1  0
  5  6  1  0
  6  7  2  0
  7  8  1  0
  8  9  2  0
  9 10  1  0
 10 11  2  0
 11 12  1  0
 12 13  2  0
  7 14  1  0
 14 15  2  0
 15 16  1  0
 16 17  1  0
 17 18  2  0
 17 19  1  0
 19 20  1  0
 20 21  1  0
 15 22  1  0
  5 23  2  0
 23  2  1  0
 22  6  1  0
 13  8  1  0
 21 19  1  0
  1 24  1  0
  1 25  1  0
  1 26  1  0
  9 27  1  0
 10 28  1  0
 11 29  1  0
 12 30  1  0
 13 31  1  0
 16 32  1  0
 19 33  1  0
 20 34  1  0
 20 35  1  0
 21 36  1  0
 21 37  1  0
M  END
>  <Original_Name>  (117) 
CHEMBL1221457

>  <ROSHAMBO_ComboTanimoto>  (117) 
0.768

>  <ROSHAMBO_ShapeTanimoto>  (117) 
0.561

>  <ROSHAMBO_ColorTanimoto>  (117) 
0.207

>  <ROSHAMBO_FitTverskyCombo>  (117) 
1.219

>  <ROSHAMBO_FitTversky>  (117) 
0.763

>  <ROSHAMBO_FitColorTversky>  (117) 
0.456

>  <ROSHAMBO_RefTverskyCombo>  (117) 
0.955

>  <ROSHAMBO_RefTversky>  (117) 
0.679

>  <ROSHAMBO_RefColorTversky>  (117) 
0.275

>  <ROSHAMBO_Overlap>  (117) 
830.913

$$$$
CHEMBL483242_0_84
     RDKit          3D

 54 56  0  0  0  0  0  0  0  0999 V2000
    6.1427   -1.2817   -3.1330 C   0  0  0  0  0  0  0  0  0  0  0  0
    6.3505   -1.3478   -1.6388 C   0  0  0  0  0  0  0  0  0  0  0  0
    5.3506   -0.6642   -0.8931 N   0  0  0  0  0  0  0  0  0  0  0  0
    4.1880   -1.3754   -0.4844 C   0  0  0  0  0  0  0  0  0  0  0  0
    3.8319   -2.3841   -1.1275 O   0  0  0  0  0  0  0  0  0  0  0  0
    3.3820   -0.9565    0.6849 C   0  0  0  0  0  0  0  0  0  0  0  0
    3.5023    0.4676    1.0606 C   0  0  0  0  0  0  0  0  0  0  0  0
    2.1747    0.9741    0.9549 N   0  0  0  0  0  0  0  0  0  0  0  0
    1.3084    0.0415    0.6475 C   0  0  0  0  0  0  0  0  0  0  0  0
   -0.0976    0.3759    0.4963 C   0  0  0  0  0  0  0  0  0  0  0  0
   -1.0549   -0.4467    0.1900 C   0  0  0  0  0  0  0  0  0  0  0  0
   -2.4453   -0.0567    0.0523 C   0  0  0  0  0  0  0  0  0  0  0  0
   -2.9042    1.2268    0.2305 C   0  0  0  0  0  0  0  0  0  0  0  0
   -4.2484    1.5817    0.0931 C   0  0  0  0  0  0  0  0  0  0  0  0
   -5.1865    0.6356   -0.2340 C   0  0  0  0  0  0  0  0  0  0  0  0
   -6.5341    0.9005   -0.3894 O   0  0  0  0  0  0  0  0  0  0  0  0
   -7.1324    2.1520   -0.2387 C   0  0  0  0  0  0  0  0  0  0  0  0
   -4.7454   -0.6568   -0.4167 C   0  0  0  0  0  0  0  0  0  0  0  0
   -5.6801   -1.6454   -0.7515 O   0  0  0  0  0  0  0  0  0  0  0  0
   -5.2582   -2.9810   -0.9456 C   0  0  0  0  0  0  0  0  0  0  0  0
   -3.4210   -0.9945   -0.2790 C   0  0  0  0  0  0  0  0  0  0  0  0
    1.9625   -1.1795    0.5279 N   0  0  0  0  0  0  0  0  0  0  0  0
    1.4061   -2.4962    0.2949 C   0  0  0  0  0  0  0  0  0  0  0  0
    4.3473    1.2828    0.2251 N   0  0  0  0  0  0  0  0  0  0  0  0
    4.1089    2.7401    0.1331 C   0  0  0  0  0  0  0  0  0  0  0  0
    3.1463    3.0280   -0.9970 C   0  0  0  0  0  0  0  0  0  0  0  0
    5.4022    0.7093   -0.5092 C   0  0  0  0  0  0  0  0  0  0  0  0
    6.4118    1.3778   -0.8473 O   0  0  0  0  0  0  0  0  0  0  0  0
    5.1141   -0.9550   -3.3460 H   0  0  0  0  0  0  0  0  0  0  0  0
    6.8531   -0.5651   -3.5707 H   0  0  0  0  0  0  0  0  0  0  0  0
    6.3093   -2.2770   -3.5707 H   0  0  0  0  0  0  0  0  0  0  0  0
    6.3496   -2.4047   -1.3341 H   0  0  0  0  0  0  0  0  0  0  0  0
    7.3083   -0.8509   -1.4244 H   0  0  0  0  0  0  0  0  0  0  0  0
    3.8150   -1.5965    1.4678 H   0  0  0  0  0  0  0  0  0  0  0  0
    3.9697    0.5141    2.0552 H   0  0  0  0  0  0  0  0  0  0  0  0
   -0.3783    1.4273    0.6566 H   0  0  0  0  0  0  0  0  0  0  0  0
   -0.7957   -1.5030    0.0251 H   0  0  0  0  0  0  0  0  0  0  0  0
   -2.1791    2.0110    0.4936 H   0  0  0  0  0  0  0  0  0  0  0  0
   -4.5565    2.6262    0.2482 H   0  0  0  0  0  0  0  0  0  0  0  0
   -7.2413    2.3799    0.8319 H   0  0  0  0  0  0  0  0  0  0  0  0
   -6.5034    2.9188   -0.7146 H   0  0  0  0  0  0  0  0  0  0  0  0
   -8.1241    2.1440   -0.7146 H   0  0  0  0  0  0  0  0  0  0  0  0
   -5.1060   -3.4630    0.0314 H   0  0  0  0  0  0  0  0  0  0  0  0
   -6.0267   -3.5300   -1.5095 H   0  0  0  0  0  0  0  0  0  0  0  0
   -4.3138   -2.9889   -1.5095 H   0  0  0  0  0  0  0  0  0  0  0  0
   -3.1206   -2.0410   -0.4356 H   0  0  0  0  0  0  0  0  0  0  0  0
    1.2003   -2.9833    1.2595 H   0  0  0  0  0  0  0  0  0  0  0  0
    0.4704   -2.4031   -0.2759 H   0  0  0  0  0  0  0  0  0  0  0  0
    2.1250   -3.1024   -0.2759 H   0  0  0  0  0  0  0  0  0  0  0  0
    3.6802    3.1011    1.0796 H   0  0  0  0  0  0  0  0  0  0  0  0
    5.0621    3.2540   -0.0601 H   0  0  0  0  0  0  0  0  0  0  0  0
    2.1703    3.3199   -0.5819 H   0  0  0  0  0  0  0  0  0  0  0  0
    3.5415    3.8473   -1.6155 H   0  0  0  0  0  0  0  0  0  0  0  0
    3.0267    2.1263   -1.6155 H   0  0  0  0  0  0  0  0  0  0  0  0
  1  2  1  0
  2  3  1  0
  3  4  1  0
  4  5  2  0
  4  6  1  0
  6  7  1  0
  7  8  1  0
  8  9  2  0
  9 10  1  0
 10 11  2  3
 11 12  1  0
 12 13  2  0
 13 14  1  0
 14 15  2  0
 15 16  1  0
 16 17  1  0
 15 18  1  0
 18 19  1  0
 19 20  1  0
 18 21  2  0
  9 22  1  0
 22 23  1  0
  7 24  1  0
 24 25  1  0
 25 26  1  0
 24 27  1  0
 27 28  2  0
 27  3  1  0
 22  6  1  0
 21 12  1  0
  1 29  1  0
  1 30  1  0
  1 31  1  0
  2 32  1  0
  2 33  1  0
  6 34  1  0
  7 35  1  0
 10 36  1  0
 11 37  1  0
 13 38  1  0
 14 39  1  0
 17 40  1  0
 17 41  1  0
 17 42  1  0
 20 43  1  0
 20 44  1  0
 20 45  1  0
 21 46  1  0
 23 47  1  0
 23 48  1  0
 23 49  1  0
 25 50  1  0
 25 51  1  0
 26 52  1  0
 26 53  1  0
 26 54  1  0
M  END
>  <Original_Name>  (118) 
CHEMBL483242

>  <ROSHAMBO_ComboTanimoto>  (118) 
0.763

>  <ROSHAMBO_ShapeTanimoto>  (118) 
0.57

>  <ROSHAMBO_ColorTanimoto>  (118) 
0.193

>  <ROSHAMBO_FitTverskyCombo>  (118) 
1.124

>  <ROSHAMBO_FitTversky>  (118) 
0.707

>  <ROSHAMBO_FitColorTversky>  (118) 
0.417

>  <ROSHAMBO_RefTverskyCombo>  (118) 
1.01

>  <ROSHAMBO_RefTversky>  (118) 
0.746

>  <ROSHAMBO_RefColorTversky>  (118) 
0.264

>  <ROSHAMBO_Overlap>  (118) 
921.413

$$$$
CHEMBL17859_0_28
     RDKit          3D

 32 34  0  0  0  0  0  0  0  0999 V2000
    3.3698   -1.1139   -0.1723 N   0  0  0  0  0  0  0  0  0  0  0  0
    2.0773   -0.5798    0.0134 C   0  0  0  0  0  0  0  0  0  0  0  0
    0.9850   -1.4075    0.1375 C   0  0  0  0  0  0  0  0  0  0  0  0
    0.8573   -2.7439    0.1201 N   0  0  0  0  0  0  0  0  0  0  0  0
   -0.4352   -3.0263    0.2849 C   0  0  0  0  0  0  0  0  0  0  0  0
   -1.1605   -1.8919    0.4105 N   0  0  0  0  0  0  0  0  0  0  0  0
   -2.5610   -1.8518    0.5979 C   0  0  0  0  0  0  0  0  0  0  0  0
   -3.1208   -0.2947    1.3983 S   0  0  0  0  0  0  0  0  0  0  0  0
   -4.7956   -0.3059    0.6640 C   0  0  0  0  0  0  0  0  0  0  0  0
   -5.0822    0.9544   -0.0907 C   0  0  0  0  0  0  0  0  0  0  0  0
   -4.9868    2.0386    0.7921 O   0  0  0  0  0  0  0  0  0  0  0  0
   -4.7602   -1.5322   -0.1739 C   0  0  0  0  0  0  0  0  0  0  0  0
   -5.0207   -2.6337    0.6533 O   0  0  0  0  0  0  0  0  0  0  0  0
   -3.3493   -1.7156   -0.6954 C   0  0  0  0  0  0  0  0  0  0  0  0
   -2.9692   -0.6417   -1.4499 O   0  0  0  0  0  0  0  0  0  0  0  0
   -0.2951   -0.8868    0.3212 C   0  0  0  0  0  0  0  0  0  0  0  0
   -0.4227    0.4254    0.3719 N   0  0  0  0  0  0  0  0  0  0  0  0
    0.6346    1.2443    0.2522 C   0  0  0  0  0  0  0  0  0  0  0  0
    0.4628    2.9953    0.3201 Cl  0  0  0  0  0  0  0  0  0  0  0  0
    1.8689    0.7431    0.0751 N   0  0  0  0  0  0  0  0  0  0  0  0
    4.1792   -0.4835   -0.2639 H   0  0  0  0  0  0  0  0  0  0  0  0
    3.5040   -2.1342   -0.2164 H   0  0  0  0  0  0  0  0  0  0  0  0
   -0.8543   -4.0430    0.3145 H   0  0  0  0  0  0  0  0  0  0  0  0
   -2.7329   -2.7823    1.1589 H   0  0  0  0  0  0  0  0  0  0  0  0
   -5.6165   -0.3309    1.3958 H   0  0  0  0  0  0  0  0  0  0  0  0
   -4.3507    1.0735   -0.9036 H   0  0  0  0  0  0  0  0  0  0  0  0
   -6.0929    0.9108   -0.5228 H   0  0  0  0  0  0  0  0  0  0  0  0
   -5.0159    1.7081    1.7249 H   0  0  0  0  0  0  0  0  0  0  0  0
   -5.4899   -1.4500   -0.9930 H   0  0  0  0  0  0  0  0  0  0  0  0
   -4.9553   -2.3570    1.6016 H   0  0  0  0  0  0  0  0  0  0  0  0
   -3.2082   -2.5733   -1.3695 H   0  0  0  0  0  0  0  0  0  0  0  0
   -2.7054    0.1035   -0.8540 H   0  0  0  0  0  0  0  0  0  0  0  0
  1  2  1  0
  2  3  2  0
  3  4  1  0
  4  5  2  0
  5  6  1  0
  6  7  1  0
  7  8  1  0
  8  9  1  0
  9 10  1  0
 10 11  1  0
  9 12  1  0
 12 13  1  0
 12 14  1  0
 14 15  1  0
  6 16  1  0
 16 17  2  0
 17 18  1  0
 18 19  1  0
 18 20  2  0
 20  2  1  0
 16  3  1  0
 14  7  1  0
  1 21  1  0
  1 22  1  0
  5 23  1  0
  7 24  1  0
  9 25  1  0
 10 26  1  0
 10 27  1  0
 11 28  1  0
 12 29  1  0
 13 30  1  0
 14 31  1  0
 15 32  1  0
M  END
>  <Original_Name>  (119) 
CHEMBL17859

>  <ROSHAMBO_ComboTanimoto>  (119) 
0.759

>  <ROSHAMBO_ShapeTanimoto>  (119) 
0.542

>  <ROSHAMBO_ColorTanimoto>  (119) 
0.217

>  <ROSHAMBO_FitTverskyCombo>  (119) 
1.159

>  <ROSHAMBO_FitTversky>  (119) 
0.801

>  <ROSHAMBO_FitColorTversky>  (119) 
0.358

>  <ROSHAMBO_RefTverskyCombo>  (119) 
0.983

>  <ROSHAMBO_RefTversky>  (119) 
0.626

>  <ROSHAMBO_RefColorTversky>  (119) 
0.356

>  <ROSHAMBO_Overlap>  (119) 
761.268

$$$$
CHEMBL447192_0_36
     RDKit          3D

 31 33  0  0  0  0  0  0  0  0999 V2000
    2.3109   -3.5453    0.1887 N   0  0  0  0  0  0  0  0  0  0  0  0
    1.2976   -2.8852    0.0892 C   0  0  0  0  0  0  0  0  0  0  0  0
    0.1193   -2.1237   -0.0021 C   0  0  0  0  0  0  0  0  0  0  0  0
    0.1579   -0.7382    0.0318 C   0  0  0  0  0  0  0  0  0  0  0  0
    1.4496   -0.0619    0.1996 C   0  0  0  0  0  0  0  0  0  0  0  0
    1.7321    1.2655    0.2163 C   0  0  0  0  0  0  0  0  0  0  0  0
    3.0831    1.4095    0.3971 C   0  0  0  0  0  0  0  0  0  0  0  0
    3.5929    0.1061    0.4883 C   0  0  0  0  0  0  0  0  0  0  0  0
    2.5972   -0.6947    0.3671 O   0  0  0  0  0  0  0  0  0  0  0  0
   -1.0075   -0.0476   -0.0931 C   0  0  0  0  0  0  0  0  0  0  0  0
   -2.2044   -0.7132   -0.2503 C   0  0  0  0  0  0  0  0  0  0  0  0
   -3.4968   -0.0724   -0.4136 C   0  0  0  0  0  0  0  0  0  0  0  0
   -4.6467   -0.8132   -0.5853 C   0  0  0  0  0  0  0  0  0  0  0  0
   -5.8789   -0.2210   -0.7528 C   0  0  0  0  0  0  0  0  0  0  0  0
   -6.0312    1.1387   -0.7578 C   0  0  0  0  0  0  0  0  0  0  0  0
   -4.8652    1.9028   -0.5831 C   0  0  0  0  0  0  0  0  0  0  0  0
   -3.6337    1.2957   -0.4159 C   0  0  0  0  0  0  0  0  0  0  0  0
   -2.1932   -2.0846   -0.2767 N   0  0  0  0  0  0  0  0  0  0  0  0
   -1.0790   -2.8000   -0.1587 C   0  0  0  0  0  0  0  0  0  0  0  0
   -1.0833   -4.2215   -0.1908 N   0  0  0  0  0  0  0  0  0  0  0  0
    1.0043    2.0826    0.1043 H   0  0  0  0  0  0  0  0  0  0  0  0
    3.6491    2.3507    0.4580 H   0  0  0  0  0  0  0  0  0  0  0  0
    4.6458   -0.1761    0.6356 H   0  0  0  0  0  0  0  0  0  0  0  0
   -0.9946    1.0520   -0.0683 H   0  0  0  0  0  0  0  0  0  0  0  0
   -4.5780   -1.9110   -0.5887 H   0  0  0  0  0  0  0  0  0  0  0  0
   -6.7651   -0.8589   -0.8862 H   0  0  0  0  0  0  0  0  0  0  0  0
   -7.0162    1.6096   -0.8918 H   0  0  0  0  0  0  0  0  0  0  0  0
   -4.9328    3.0008   -0.5791 H   0  0  0  0  0  0  0  0  0  0  0  0
   -2.7406    1.9237   -0.2814 H   0  0  0  0  0  0  0  0  0  0  0  0
   -0.1992   -4.7414   -0.0961 H   0  0  0  0  0  0  0  0  0  0  0  0
   -1.9704   -4.7313   -0.3088 H   0  0  0  0  0  0  0  0  0  0  0  0
  1  2  3  0
  2  3  1  0
  3  4  2  0
  4  5  1  0
  5  6  2  0
  6  7  1  0
  7  8  2  0
  8  9  1  0
  4 10  1  0
 10 11  2  0
 11 12  1  0
 12 13  2  0
 13 14  1  0
 14 15  2  0
 15 16  1  0
 16 17  2  0
 11 18  1  0
 18 19  2  0
 19 20  1  0
 19  3  1  0
  9  5  1  0
 17 12  1  0
  6 21  1  0
  7 22  1  0
  8 23  1  0
 10 24  1  0
 13 25  1  0
 14 26  1  0
 15 27  1  0
 16 28  1  0
 17 29  1  0
 20 30  1  0
 20 31  1  0
M  END
>  <Original_Name>  (120) 
CHEMBL447192

>  <ROSHAMBO_ComboTanimoto>  (120) 
0.752

>  <ROSHAMBO_ShapeTanimoto>  (120) 
0.553

>  <ROSHAMBO_ColorTanimoto>  (120) 
0.2

>  <ROSHAMBO_FitTverskyCombo>  (120) 
1.243

>  <ROSHAMBO_FitTversky>  (120) 
0.798

>  <ROSHAMBO_FitColorTversky>  (120) 
0.444

>  <ROSHAMBO_RefTverskyCombo>  (120) 
0.908

>  <ROSHAMBO_RefTversky>  (120) 
0.642

>  <ROSHAMBO_RefColorTversky>  (120) 
0.266

>  <ROSHAMBO_Overlap>  (120) 
781.686

$$$$
CHEMBL491317_0_73
     RDKit          3D

 46 49  0  0  0  0  0  0  0  0999 V2000
    1.8071   -6.1620   -0.0821 C   0  0  0  0  0  0  0  0  0  0  0  0
    2.2944   -4.8132   -0.2108 N   0  0  0  0  0  0  0  0  0  0  0  0
    1.4152   -3.7323    0.0993 C   0  0  0  0  0  0  0  0  0  0  0  0
    0.1392   -3.9744    0.5100 N   0  0  0  0  0  0  0  0  0  0  0  0
   -0.6969   -2.9679    0.8037 C   0  0  0  0  0  0  0  0  0  0  0  0
   -0.3017   -1.6552    0.7020 C   0  0  0  0  0  0  0  0  0  0  0  0
   -0.8660   -0.4639    0.9254 N   0  0  0  0  0  0  0  0  0  0  0  0
   -2.2107   -0.1877    1.3335 C   0  0  0  0  0  0  0  0  0  0  0  0
   -3.1623    0.1448    0.2672 C   0  0  0  0  0  0  0  0  0  0  0  0
   -3.7150   -0.7683   -0.5842 C   0  0  0  0  0  0  0  0  0  0  0  0
   -3.4110   -2.0872   -0.4828 F   0  0  0  0  0  0  0  0  0  0  0  0
   -4.6249   -0.3974   -1.5923 C   0  0  0  0  0  0  0  0  0  0  0  0
   -5.0030    0.9104   -1.7680 C   0  0  0  0  0  0  0  0  0  0  0  0
   -4.4519    1.8388   -0.9144 C   0  0  0  0  0  0  0  0  0  0  0  0
   -3.5637    1.4754    0.0691 C   0  0  0  0  0  0  0  0  0  0  0  0
   -3.0193    2.3863    0.9235 F   0  0  0  0  0  0  0  0  0  0  0  0
    0.0674    0.4933    0.6533 C   0  0  0  0  0  0  0  0  0  0  0  0
   -0.0797    1.7453    0.7449 O   0  0  0  0  0  0  0  0  0  0  0  0
    1.2129   -0.0870    0.2591 N   0  0  0  0  0  0  0  0  0  0  0  0
    1.0120   -1.4147    0.2800 C   0  0  0  0  0  0  0  0  0  0  0  0
    1.8085   -2.4577   -0.0016 N   0  0  0  0  0  0  0  0  0  0  0  0
    2.4202    0.5432   -0.1157 C   0  0  0  0  0  0  0  0  0  0  0  0
    2.4578    1.7787   -0.7237 C   0  0  0  0  0  0  0  0  0  0  0  0
    3.5989    2.4340   -1.1089 C   0  0  0  0  0  0  0  0  0  0  0  0
    4.8055    1.7753   -0.8531 C   0  0  0  0  0  0  0  0  0  0  0  0
    4.8304    0.5369   -0.2471 C   0  0  0  0  0  0  0  0  0  0  0  0
    6.0254   -0.1141    0.0053 O   0  0  0  0  0  0  0  0  0  0  0  0
    7.2303    0.5206   -0.3737 C   0  0  0  0  0  0  0  0  0  0  0  0
    3.6483   -0.0730    0.1180 C   0  0  0  0  0  0  0  0  0  0  0  0
    1.7145   -6.4182    0.9836 H   0  0  0  0  0  0  0  0  0  0  0  0
    0.8226   -6.2439   -0.5658 H   0  0  0  0  0  0  0  0  0  0  0  0
    2.5120   -6.8542   -0.5658 H   0  0  0  0  0  0  0  0  0  0  0  0
    3.2597   -4.6316   -0.5210 H   0  0  0  0  0  0  0  0  0  0  0  0
   -1.7209   -3.1977    1.1330 H   0  0  0  0  0  0  0  0  0  0  0  0
   -2.5912   -1.0780    1.8556 H   0  0  0  0  0  0  0  0  0  0  0  0
   -2.1461    0.7151    1.9585 H   0  0  0  0  0  0  0  0  0  0  0  0
   -5.0417   -1.1719   -2.2530 H   0  0  0  0  0  0  0  0  0  0  0  0
   -5.7137    1.2030   -2.5549 H   0  0  0  0  0  0  0  0  0  0  0  0
   -4.7293    2.8978   -1.0222 H   0  0  0  0  0  0  0  0  0  0  0  0
    1.4969    2.2788   -0.9152 H   0  0  0  0  0  0  0  0  0  0  0  0
    3.5670    3.4219   -1.5916 H   0  0  0  0  0  0  0  0  0  0  0  0
    5.7531    2.2541   -1.1410 H   0  0  0  0  0  0  0  0  0  0  0  0
    7.7888    0.8148    0.5272 H   0  0  0  0  0  0  0  0  0  0  0  0
    7.8384   -0.1742   -0.9715 H   0  0  0  0  0  0  0  0  0  0  0  0
    7.0013    1.4151   -0.9715 H   0  0  0  0  0  0  0  0  0  0  0  0
    3.6752   -1.0608    0.6011 H   0  0  0  0  0  0  0  0  0  0  0  0
  1  2  1  0
  2  3  1  0
  3  4  2  0
  4  5  1  0
  5  6  2  0
  6  7  1  0
  7  8  1  0
  8  9  1  0
  9 10  2  0
 10 11  1  0
 10 12  1  0
 12 13  2  0
 13 14  1  0
 14 15  2  0
 15 16  1  0
  7 17  1  0
 17 18  2  0
 17 19  1  0
 19 20  1  0
 20 21  2  0
 19 22  1  0
 22 23  2  0
 23 24  1  0
 24 25  2  0
 25 26  1  0
 26 27  1  0
 27 28  1  0
 26 29  2  0
 21  3  1  0
 29 22  1  0
 20  6  1  0
 15  9  1  0
  1 30  1  0
  1 31  1  0
  1 32  1  0
  2 33  1  0
  5 34  1  0
  8 35  1  0
  8 36  1  0
 12 37  1  0
 13 38  1  0
 14 39  1  0
 23 40  1  0
 24 41  1  0
 25 42  1  0
 28 43  1  0
 28 44  1  0
 28 45  1  0
 29 46  1  0
M  END
>  <Original_Name>  (121) 
CHEMBL491317

>  <ROSHAMBO_ComboTanimoto>  (121) 
0.743

>  <ROSHAMBO_ShapeTanimoto>  (121) 
0.535

>  <ROSHAMBO_ColorTanimoto>  (121) 
0.208

>  <ROSHAMBO_FitTverskyCombo>  (121) 
1.052

>  <ROSHAMBO_FitTversky>  (121) 
0.657

>  <ROSHAMBO_FitColorTversky>  (121) 
0.395

>  <ROSHAMBO_RefTverskyCombo>  (121) 
1.047

>  <ROSHAMBO_RefTversky>  (121) 
0.742

>  <ROSHAMBO_RefColorTversky>  (121) 
0.305

>  <ROSHAMBO_Overlap>  (121) 
920.074

$$$$
