
                    3D
 Schrodinger Suite 2022-4.
 25 28  0  0  1  0            999 V2000
   30.7670   36.7990   63.2520 C   0  0  0  0  0  0
   30.5180   37.2990   64.5240 C   0  0  0  0  0  0
   29.7770   38.4640   64.6790 C   0  0  0  0  0  0
   29.5310   38.9600   65.9200 O   0  0  0  0  0  0
   29.2860   39.1290   63.5620 C   0  0  0  0  0  0
   29.5320   38.6280   62.2910 C   0  0  0  0  0  0
   30.2680   37.4610   62.1350 C   0  0  0  0  0  0
   30.5510   36.9180   60.7360 C   0  0  0  0  0  0
   32.0120   36.4880   60.6410 C   0  0  0  0  0  0
   32.3380   36.0470   59.2790 N   0  0  0  0  0  0
   32.8060   36.9970   58.4770 C   0  0  0  0  0  0
   33.1740   36.7320   57.2130 N   0  0  0  0  0  0
   32.9280   38.2310   58.9920 N   0  0  0  0  0  0
   33.3980   39.2470   58.2600 C   0  0  0  0  0  0
   33.4990   40.4640   58.7900 N   0  0  0  0  0  0
   33.7820   39.0060   56.9430 N   0  0  0  0  0  0
   34.2390   39.7350   56.0620 N   0  0  0  0  0  0
   33.6570   37.7140   56.4350 C   0  0  0  0  0  0
   34.0850   37.7570   55.1790 N   0  0  0  0  0  0
   34.4500   39.0210   54.9540 C   0  0  0  0  0  0
   34.9550   39.5300   53.7650 C   0  0  0  0  0  0
   35.2090   38.8960   52.6250 C   0  0  0  0  0  0
   35.6840   39.7860   51.7550 C   0  0  0  0  0  0
   35.7330   40.9850   52.3370 C   0  0  0  0  0  0
   35.2740   40.8450   53.6180 O   0  0  0  0  0  0
  1  2  1  0  0  0
  1  7  2  0  0  0
  2  3  2  0  0  0
  3  4  1  0  0  0
  3  5  1  0  0  0
  5  6  2  0  0  0
  6  7  1  0  0  0
  7  8  1  0  0  0
  8  9  1  0  0  0
  9 10  1  0  0  0
 10 11  1  0  0  0
 11 12  2  0  0  0
 11 13  1  0  0  0
 12 18  1  0  0  0
 13 14  2  0  0  0
 14 15  1  0  0  0
 14 16  1  0  0  0
 16 17  1  0  0  0
 16 18  1  0  0  0
 17 20  2  0  0  0
 18 19  2  0  0  0
 19 20  1  0  0  0
 20 21  1  0  0  0
 21 22  2  0  0  0
 21 25  1  0  0  0
 22 23  1  0  0  0
 23 24  2  0  0  0
 24 25  1  0  0  0
M  END
> <s_pdb_PDB_format_version>
3.0

$$$$
